units(length='cm', time='s', quantity='mol', act_energy='kcal/mol')

ideal_gas(name='gas',
          elements="H D T C Ci O Oi N Ne Ar He Si S F Cl Br I X",
          species="""N2          Ne          CH3F(1)     O2(2)
                     H(3)        O(4)        OH(5)       H2(6)
                     H2O(7)      HO2(10)     H2O2(11)    CO(12)
                     CO2(13)     HCO(14)     CH2(T)(17)  CH3(18)
                     CH2O(19)    CH2(S)(24)  F(37)       HF(38)
                     CH2F(45)    CHFO(46)    CFO(50)     C1OO1(148)
                     CHO2(153)   CHO2(154)   O2(159)     CH2O2(161)
                     S(178)      CFO3(608)""",
          reactions='all',
          transport='Mix',
          initial_state=state(temperature=300.0, pressure=OneAtm))

#-------------------------------------------------------------------------------
# Element data
#-------------------------------------------------------------------------------

element(symbol='Ci', atomic_mass=13.003)
element(symbol='D', atomic_mass=2.014)
element(symbol='Oi', atomic_mass=17.999)
element(symbol='T', atomic_mass=3.016)
element(symbol='X', atomic_mass=195.083)
#-------------------------------------------------------------------------------
# Species data
#-------------------------------------------------------------------------------

species(name='N2',
        atoms='N:2',
        thermo=(NASA([200.00, 1000.00],
                     [ 3.53101000E+00, -1.23661000E-04, -5.02999000E-07,
                       2.43531000E-09, -1.40881000E-12, -1.04698000E+03,
                       2.96747000E+00]),
                NASA([1000.00, 6000.00],
                     [ 2.95258000E+00,  1.39690000E-03, -4.92632000E-07,
                       7.86010000E-11, -4.60755000E-15, -9.23949000E+02,
                       5.87189000E+00])),
        transport=gas_transport(geom='linear',
                                diam=3.621,
                                well_depth=97.53,
                                polar=1.76,
                                rot_relax=4.0))

species(name='Ne',
        atoms='Ne:1',
        thermo=(NASA([200.00, 1000.00],
                     [ 2.50000000E+00,  0.00000000E+00,  0.00000000E+00,
                       0.00000000E+00,  0.00000000E+00, -7.45375000E+02,
                       3.35532000E+00]),
                NASA([1000.00, 6000.00],
                     [ 2.50000000E+00,  0.00000000E+00,  0.00000000E+00,
                       0.00000000E+00,  0.00000000E+00, -7.45375000E+02,
                       3.35532000E+00])),
        transport=gas_transport(geom='atom',
                                diam=3.758,
                                well_depth=148.6))

species(name='CH3F(1)',
        atoms='C:1 F:1 H:3',
        thermo=(NASA([200.00, 1000.00],
                     [ 5.13884995E+00, -1.52225700E-02,  6.07163912E-05,
                      -6.52865359E-08,  2.38092602E-11, -2.96183839E+04,
                      -1.55798184E-01]),
                NASA([1000.00, 3000.00],
                     [ 1.09543626E+00,  1.30467027E-02, -6.34689480E-06,
                       1.49984057E-09, -1.39689327E-13, -2.92619821E+04,
                       1.67625962E+01])),
        transport=gas_transport(geom='nonlinear',
                                diam=4.123,
                                well_depth=262.0,
                                dipole=1.8))

species(name='O2(2)',
        atoms='O:2',
        thermo=(NASA([100.00, 1074.55],
                     [ 3.53732243E+00, -1.21571655E-03,  5.31620279E-06,
                      -4.89446465E-09,  1.45846271E-12, -1.03858849E+03,
                       4.68368180E+00]),
                NASA([1074.55, 5000.00],
                     [ 3.15382077E+00,  1.67804376E-03, -7.69974269E-07,
                       1.51275470E-10, -1.08782420E-14, -1.04081727E+03,
                       6.16755852E+00])),
        transport=gas_transport(geom='linear',
                                diam=3.458,
                                well_depth=107.4,
                                polar=1.6,
                                rot_relax=3.8))

species(name='H(3)',
        atoms='H:1',
        thermo=(NASA([100.00, 4230.24],
                     [ 2.50000000E+00,  9.05028667E-14, -1.20494648E-16,
                       5.23431737E-20, -6.99813850E-24,  2.54742178E+04,
                      -4.44972896E-01]),
                NASA([4230.24, 5000.00],
                     [ 2.49999605E+00,  3.58763060E-09, -1.22015473E-12,
                       1.84118067E-16, -1.04000002E-20,  2.54742212E+04,
                      -4.44947992E-01])),
        transport=gas_transport(geom='atom',
                                diam=2.05,
                                well_depth=145.0))

species(name='O(4)',
        atoms='O:1',
        thermo=(NASA([100.00, 4230.24],
                     [ 2.50000000E+00,  9.05028667E-14, -1.20494648E-16,
                       5.23431737E-20, -6.99813850E-24,  2.92302441E+04,
                       5.12616427E+00]),
                NASA([4230.24, 5000.00],
                     [ 2.49999605E+00,  3.58763060E-09, -1.22015473E-12,
                       1.84118067E-16, -1.04000002E-20,  2.92302476E+04,
                       5.12618918E+00])),
        transport=gas_transport(geom='atom',
                                diam=2.75,
                                well_depth=80.0))

species(name='OH(5)',
        atoms='H:1 O:1',
        thermo=(NASA([100.00, 1145.76],
                     [ 3.51456840E+00,  2.92733461E-05, -5.32150328E-07,
                       1.01947489E-09, -3.85939283E-13,  3.41425418E+03,
                       2.10434754E+00]),
                NASA([1145.76, 5000.00],
                     [ 3.07193719E+00,  6.04019927E-04, -1.39806418E-08,
                      -2.13440701E-11,  2.48061276E-15,  3.57938795E+03,
                       4.57801500E+00])),
        transport=gas_transport(geom='linear',
                                diam=2.75,
                                well_depth=80.0))

species(name='H2(6)',
        atoms='H:2',
        thermo=(NASA([100.00, 1959.08],
                     [ 3.43536431E+00,  2.12708634E-04, -2.78621143E-07,
                       3.40264107E-10, -7.76024422E-14, -1.03135985E+03,
                      -3.90841808E+00]),
                NASA([1959.08, 5000.00],
                     [ 2.78814513E+00,  5.87667842E-04,  1.58997823E-07,
                      -5.52713751E-11,  4.34292562E-15, -5.96132053E+02,
                       1.12855390E-01])),
        transport=gas_transport(geom='linear',
                                diam=2.92,
                                well_depth=38.0,
                                polar=0.79,
                                rot_relax=280.0))

species(name='H2O(7)',
        atoms='H:2 O:1',
        thermo=(NASA([100.00, 1130.24],
                     [ 4.05763583E+00, -7.87935820E-04,  2.90877481E-06,
                      -1.47518847E-09,  2.12842891E-13, -3.02815866E+04,
                      -3.11364048E-01]),
                NASA([1130.24, 5000.00],
                     [ 2.84325052E+00,  2.75108536E-03, -7.81031435E-07,
                       1.07243628E-10, -5.79392151E-15, -2.99586128E+04,
                       5.91041953E+00])),
        transport=gas_transport(geom='nonlinear',
                                diam=2.605,
                                well_depth=572.402,
                                dipole=1.844,
                                rot_relax=4.0))

species(name='HO2(10)',
        atoms='H:1 O:2',
        thermo=(NASA([200.00, 1000.00],
                     [ 4.30180000E+00, -4.74912000E-03,  2.11583000E-05,
                      -2.42764000E-08,  9.29225000E-12,  2.64018000E+02,
                       3.71666000E+00]),
                NASA([1000.00, 5000.00],
                     [ 4.17229000E+00,  1.88118000E-03, -3.46277000E-07,
                       1.94658000E-11,  1.76257000E-16,  3.10207000E+01,
                       2.95768000E+00])),
        transport=gas_transport(geom='nonlinear',
                                diam=3.458,
                                well_depth=107.4,
                                rot_relax=1.0))

species(name='H2O2(11)',
        atoms='H:2 O:2',
        thermo=(NASA([200.00, 1000.00],
                     [ 4.31515000E+00, -8.47391000E-04,  1.76404000E-05,
                      -2.26763000E-08,  9.08950000E-12, -1.77067000E+04,
                       3.27373000E+00]),
                NASA([1000.00, 6000.00],
                     [ 4.57977000E+00,  4.05326000E-03, -1.29845000E-06,
                       1.98211000E-10, -1.13969000E-14, -1.80072000E+04,
                       6.64971000E-01])),
        transport=gas_transport(geom='nonlinear',
                                diam=3.458,
                                well_depth=107.4,
                                rot_relax=3.8))

species(name='CO(12)',
        atoms='C:1 O:1',
        thermo=(NASA([100.00, 1571.64],
                     [ 3.56837990E+00, -8.52124792E-04,  2.48917582E-06,
                      -1.56330849E-09,  3.13594738E-13, -1.42842549E+04,
                       3.57912211E+00]),
                NASA([1571.64, 5000.00],
                     [ 2.91306747E+00,  1.64657731E-03, -6.88614547E-07,
                       1.21037299E-10, -7.84017568E-15, -1.41808850E+04,
                       6.71045295E+00])),
        transport=gas_transport(geom='linear',
                                diam=3.65,
                                well_depth=98.1,
                                polar=1.95,
                                rot_relax=1.8))

species(name='CO2(13)',
        atoms='C:1 O:2',
        thermo=(NASA([200.00, 1000.00],
                     [ 2.35681000E+00,  8.98413000E-03, -7.12206000E-06,
                       2.45730000E-09, -1.42885000E-13, -4.83720000E+04,
                       9.90090000E+00]),
                NASA([1000.00, 6000.00],
                     [ 4.63651000E+00,  2.74146000E-03, -9.95898000E-07,
                       1.60387000E-10, -9.16199000E-15, -4.90249000E+04,
                      -1.93490000E+00])),
        transport=gas_transport(geom='linear',
                                diam=3.763,
                                well_depth=244.001,
                                polar=2.65,
                                rot_relax=2.1))

species(name='HCO(14)',
        atoms='C:1 H:1 O:1',
        thermo=(NASA([200.00, 1000.00],
                     [ 4.23755000E+00, -3.32075000E-03,  1.40030000E-05,
                      -1.34240000E-08,  4.37416000E-12,  3.87241000E+03,
                       3.30835000E+00]),
                NASA([1000.00, 6000.00],
                     [ 3.92002000E+00,  2.52279000E-03, -6.71004000E-07,
                       1.05616000E-10, -7.43798000E-15,  3.65343000E+03,
                       3.58077000E+00])),
        transport=gas_transport(geom='nonlinear',
                                diam=3.59,
                                well_depth=498.002))

species(name='CH2(T)(17)',
        atoms='C:1 H:2',
        thermo=(NASA([100.00, 1104.65],
                     [ 4.01192375E+00, -1.54977502E-04,  3.26297499E-06,
                      -2.40421511E-09,  5.69495776E-13,  4.58676802E+04,
                       5.33200966E-01]),
                NASA([1104.65, 5000.00],
                     [ 3.14983330E+00,  2.96674362E-03, -9.76056467E-07,
                       1.54115432E-10, -9.50339412E-15,  4.60581392E+04,
                       4.77807981E+00])),
        transport=gas_transport(geom='nonlinear',
                                diam=3.8,
                                well_depth=144.001))

species(name='CH3(18)',
        atoms='C:1 H:3',
        thermo=(NASA([200.00, 1000.00],
                     [ 3.65718000E+00,  2.12660000E-03,  5.45839000E-06,
                      -6.61810000E-09,  2.46571000E-12,  1.64227000E+04,
                       1.67354000E+00]),
                NASA([1000.00, 6000.00],
                     [ 2.97812000E+00,  5.79785000E-03, -1.97558000E-06,
                       3.07298000E-10, -1.79174000E-14,  1.65095000E+04,
                       4.72248000E+00])),
        transport=gas_transport(geom='nonlinear',
                                diam=3.8,
                                well_depth=144.001))

species(name='CH2O(19)',
        atoms='C:1 H:2 O:1',
        thermo=(NASA([200.00, 1000.00],
                     [ 4.79372000E+00, -9.90833000E-03,  3.73220000E-05,
                      -3.79285000E-08,  1.31773000E-11, -1.43792000E+04,
                       6.02798000E-01]),
                NASA([1000.00, 6000.00],
                     [ 3.16953000E+00,  6.19321000E-03, -2.25056000E-06,
                       3.65976000E-10, -2.20149000E-14, -1.45487000E+04,
                       6.04208000E+00])),
        transport=gas_transport(geom='nonlinear',
                                diam=3.59,
                                well_depth=498.002,
                                rot_relax=2.0))

species(name='CH2(S)(24)',
        atoms='C:1 H:2',
        thermo=(NASA([100.00, 1442.36],
                     [ 4.10264356E+00, -1.44068224E-03,  5.45068476E-06,
                      -3.58001597E-09,  7.56191373E-13,  5.04005785E+04,
                      -4.11765120E-01]),
                NASA([1442.36, 5000.00],
                     [ 2.62647665E+00,  3.94762534E-03, -1.49923933E-06,
                       2.54538711E-10, -1.62955489E-14,  5.06917518E+04,
                       6.78377550E+00])),
        transport=gas_transport(geom='nonlinear',
                                diam=3.8,
                                well_depth=144.001))

species(name='F(37)',
        atoms='F:1',
        thermo=(NASA([200.00, 1000.00],
                     [ 2.41932420E+00,  2.93848449E-03, -8.91441625E-06,
                       9.90063549E-09, -3.78936967E-12,  8.99832590E+03,
                       4.73388583E+00]),
                NASA([1000.00, 3000.00],
                     [ 2.73547309E+00, -3.18376264E-04,  1.80404747E-07,
                      -4.76650983E-11,  4.82178946E-15,  9.00723724E+03,
                       3.62700929E+00])),
        transport=gas_transport(geom='atom',
                                diam=2.75,
                                well_depth=80.0))

species(name='HF(38)',
        atoms='F:1 H:1',
        thermo=(NASA([200.00, 1000.00],
                     [ 3.47861056E+00,  2.30210129E-04, -7.26207054E-07,
                       8.90789862E-10, -2.44257848E-13, -3.38440904E+04,
                       1.03719885E+00]),
                NASA([1000.00, 6000.00],
                     [ 2.92408264E+00,  8.52279140E-04, -1.60115398E-07,
                       1.31455482E-11, -2.46281644E-16, -3.36186854E+04,
                       4.19417238E+00])),
        transport=gas_transport(geom='linear',
                                diam=3.148,
                                well_depth=330.001,
                                dipole=1.92,
                                polar=2.46,
                                rot_relax=1.0))

species(name='CH2F(45)',
        atoms='C:1 F:1 H:2',
        thermo=(NASA([200.00, 1000.00],
                     [ 3.77938639E+00, -3.97612680E-04,  1.87718416E-05,
                      -2.40689064E-08,  9.55051041E-12, -4.99331979E+03,
                       6.23834236E+00]),
                NASA([1000.00, 3000.00],
                     [ 3.20982001E+00,  6.97057987E-03, -3.20030736E-06,
                       7.19313063E-10, -6.41861685E-14, -5.05791555E+03,
                       7.93158384E+00])),
        transport=gas_transport(geom='nonlinear',
                                diam=4.123,
                                well_depth=262.0,
                                dipole=1.8))

species(name='CHFO(46)',
        atoms='C:1 F:1 H:1 O:1',
        thermo=(NASA([200.00, 1000.00],
                     [ 3.75304076E+00, -1.54852861E-03,  2.57217119E-05,
                      -3.26531112E-08,  1.28244723E-11, -4.72465247E+04,
                       7.84452039E+00]),
                NASA([1000.00, 3000.00],
                     [ 3.35899933E+00,  7.98029314E-03, -4.19403281E-06,
                       1.05585946E-09, -1.03534032E-13, -4.74866206E+04,
                       7.99119076E+00])),
        transport=gas_transport(geom='nonlinear',
                                diam=4.906,
                                well_depth=350.5))

species(name='CFO(50)',
        atoms='C:1 F:1 O:1',
        thermo=(NASA([200.00, 1000.00],
                     [ 3.44442764E+00,  3.58299017E-03,  3.31756350E-06,
                      -7.17713557E-09,  3.14601149E-12, -2.25576575E+04,
                       9.13877709E+00]),
                NASA([1000.00, 3000.00],
                     [ 4.06597351E+00,  3.97110832E-03, -2.26619886E-06,
                       6.04870210E-10, -6.18959515E-14, -2.28159283E+04,
                       5.45702826E+00])),
        transport=gas_transport(geom='nonlinear',
                                diam=4.0,
                                well_depth=860.0))

species(name='C1OO1(148)',
        atoms='C:1 H:2 O:2',
        thermo=(NASA([100.00, 885.25],
                     [ 3.54060874E+00, -1.77458962E-02,  1.31424985E-04,
                      -1.83793243E-07,  7.77334191E-11, -1.97383350E+03,
                       7.10119568E+00]),
                NASA([885.25, 5000.00],
                     [ 2.11785178E+01, -2.37527585E-02,  1.67393544E-05,
                      -3.39194494E-09,  2.31172034E-13, -7.98402790E+03,
                      -9.21501786E+01])),
        transport=gas_transport(geom='nonlinear',
                                diam=5.143,
                                well_depth=362.248))

species(name='CHO2(153)',
        atoms='C:1 H:1 O:2',
        thermo=(NASA([200.00, 1000.00],
                     [ 2.92208000E+00,  7.62454000E-03,  3.29884000E-06,
                      -1.07135000E-08,  5.11587000E-12, -2.30282000E+04,
                       1.12926000E+01]),
                NASA([1000.00, 6000.00],
                     [ 5.39206000E+00,  4.11221000E-03, -1.48195000E-06,
                       2.39875000E-10, -1.43903000E-14, -2.38607000E+04,
                      -2.23529000E+00])),
        transport=gas_transport(geom='nonlinear',
                                diam=3.59,
                                well_depth=498.0,
                                rot_relax=2.0))

species(name='CHO2(154)',
        atoms='C:1 H:1 O:2',
        thermo=(NASA([100.00, 1184.08],
                     [ 3.51544885E+00,  1.12656040E-02, -9.58081596E-06,
                       4.36316685E-09, -8.44577734E-13, -1.66722453E+04,
                       7.37034189E+00]),
                NASA([1184.08, 5000.00],
                     [ 5.09941256E+00,  5.91471082E-03, -2.80223781E-06,
                       5.46639199E-10, -3.87736091E-14, -1.70473514E+04,
                      -5.38995884E-01])),
        transport=gas_transport(geom='nonlinear',
                                diam=3.59,
                                well_depth=498.0,
                                rot_relax=2.0))

species(name='O2(159)',
        atoms='O:2',
        thermo=(NASA([100.00, 1074.55],
                     [ 3.53732243E+00, -1.21571655E-03,  5.31620279E-06,
                      -4.89446465E-09,  1.45846271E-12,  1.03044825E+04,
                       4.68368180E+00]),
                NASA([1074.55, 5000.00],
                     [ 3.15382077E+00,  1.67804376E-03, -7.69974269E-07,
                       1.51275470E-10, -1.08782420E-14,  1.03022537E+04,
                       6.16755852E+00])),
        transport=gas_transport(geom='linear',
                                diam=4.347,
                                well_depth=223.367))

species(name='CH2O2(161)',
        atoms='C:1 H:2 O:2',
        thermo=(NASA([100.00, 1894.83],
                     [ 5.67715279E+00, -7.71643662E-03,  2.71172005E-05,
                      -1.79272072E-08,  3.39821691E-12,  6.33773572E+03,
                       9.67261888E-01]),
                NASA([1894.83, 5000.00],
                     [ 6.51974308E+00,  1.50030861E-02, -1.02616497E-05,
                       2.04723467E-09, -1.37416781E-13,  1.62051405E+03,
                      -1.52412832E+01])),
        transport=gas_transport(geom='nonlinear',
                                diam=5.898,
                                well_depth=436.691))

species(name='S(178)',
        atoms='C:1 F:1 H:2 O:2',
        thermo=(NASA([10.00, 997.57],
                     [ 3.91825000E+00,  1.04144000E-02,  6.14512000E-06,
                      -1.30410000E-08,  5.04468000E-12, -2.40487000E+04,
                       9.83513000E+00]),
                NASA([997.57, 3000.00],
                     [ 4.63802000E+00,  1.34503000E-02, -7.32448000E-06,
                       1.91158000E-09, -1.93959000E-13, -2.44870000E+04,
                       4.88755000E+00])),
        transport=gas_transport(geom='nonlinear',
                                diam=5.279,
                                well_depth=384.601))

species(name='CFO3(608)',
        atoms='C:1 F:1 O:3',
        thermo=(NASA([10.00, 509.96],
                     [ 3.92964000E+00,  4.48623000E-03,  6.20575000E-05,
                      -1.45434000E-07,  9.86982000E-11, -4.08678000E+04,
                       1.02015000E+01]),
                NASA([509.96, 3000.00],
                     [ 4.25304000E+00,  1.57357000E-02, -1.15832000E-05,
                       3.84885000E-09, -4.74388000E-13, -4.10800000E+04,
                       7.10146000E+00])),
        transport=gas_transport(geom='nonlinear',
                                diam=5.326,
                                well_depth=419.393))

#-------------------------------------------------------------------------------
# Reaction data
#-------------------------------------------------------------------------------

# Reaction 1
pdep_arrhenius('HF(38) + CH2(T)(17) <=> CH3F(1)',
               [(0.1, 'atm'), 1.500000e+27, -5.16, -1.405],
               [(0.215, 'atm'), 1.190000e+27, -5.03, -1.176],
               [(0.464, 'atm'), 7.150000e+26, -4.88, -0.966],
               [(1.0, 'atm'), 3.090000e+26, -4.68, -0.786],
               [(2.15, 'atm'), 8.910000e+25, -4.43, -0.664],
               [(4.64, 'atm'), 1.600000e+25, -4.13, -0.621],
               [(10.0, 'atm'), 1.700000e+24, -3.77, -0.681],
               [(21.5, 'atm'), 1.060000e+23, -3.34, -0.86],
               [(46.4, 'atm'), 4.030000e+21, -2.86, -1.159],
               [(100.0, 'atm'), 9.970000e+19, -2.33, -1.577])

# Reaction 2
reaction('O2(2) + CH2(T)(17) <=> H(3) + H(3) + CO2(13)', [1.844000e+12, 0.0, 1.0])

# Reaction 3
reaction('N2 + CH2(S)(24) <=> N2 + CH2(T)(17)', [1.200000e+13, 0.0, 0.471])

# Reaction 4
reaction('O2(2) + CH2(S)(24) <=> O2(2) + CH2(T)(17)', [3.130000e+13, 0.0, 0.0])

# Reaction 5
reaction('CO2(13) + CH2(S)(24) <=> CO2(13) + CH2(T)(17)', [1.330000e+13, 0.0, 0.0])

# Reaction 6
falloff_reaction('CH3F(1) (+ M) <=> HF(38) + CH2(S)(24) (+ M)',
                 kf=[1.000000e+14, 0.0, 85.0],
                 kf0=[1.500000e+16, 0.0, 67.499],
                 efficiencies='CH3F(1):6.0 CO(12):1.5 CO2(13):2.0 H2(6):2.0 H2O(7):9.0 HF(38):2.0')

# Reaction 7
chebyshev_reaction('O2(2) + CH2(T)(17) (+ M) <=> C1OO1(148) (+ M)',
                   Tmin=300.0, Tmax=2500.0,
                   Pmin=(0.01, 'atm'), Pmax=(98.692, 'atm'),
                   coeffs=[[ 3.67800e+00,  2.00000e+00, -1.66800e-04, -9.25700e-05],
                           [ 1.89600e+00,  1.26500e-04,  8.80500e-05,  4.88700e-05],
                           [ 6.35400e-01,  3.73800e-06,  2.60200e-06,  1.44500e-06],
                           [ 2.71400e-01, -3.30800e-05, -2.30200e-05, -1.27800e-05],
                           [ 1.17200e-01, -1.40400e-05, -9.77400e-06, -5.42700e-06],
                           [ 4.96500e-02, -8.54000e-06, -5.94500e-06, -3.30100e-06]])

# Reaction 8
reaction('CO(12) + CH2(S)(24) <=> CO(12) + CH2(T)(17)', [9.000000e+12, 0.0, 0.0])

# Reaction 9
reaction('OH(5) + CO(12) <=> H(3) + CO2(13)', [6.187000e+04, 2.053, -0.356],
         options='duplicate')

# Reaction 10
reaction('OH(5) + CO(12) <=> H(3) + CO2(13)', [5.017000e+12, -0.664, 0.332],
         options='duplicate')

# Reaction 11
reaction('O2(2) + CH2(T)(17) <=> H(3) + OH(5) + CO(12)', [2.643000e+12, 0.0, 1.0])

# Reaction 12
chebyshev_reaction('O2(2) + CH2(T)(17) (+ M) <=> CH2O2(161) (+ M)',
                   Tmin=300.0, Tmax=2500.0,
                   Pmin=(0.01, 'atm'), Pmax=(98.692, 'atm'),
                   coeffs=[[ 4.95200e+00,  2.00000e+00, -1.70400e-04, -9.45700e-05],
                           [ 2.05500e+00,  1.30200e-04,  9.05800e-05,  5.02800e-05],
                           [ 4.11400e-01,  4.61300e-06,  3.21100e-06,  1.78300e-06],
                           [ 1.37800e-01, -3.33500e-05, -2.32100e-05, -1.28800e-05],
                           [ 3.32400e-02, -1.39700e-05, -9.72600e-06, -5.40100e-06],
                           [ 4.98900e-03, -8.46100e-06, -5.89000e-06, -3.27000e-06]])

# Reaction 13
chebyshev_reaction('CH2O2(161) (+ M) <=> C1OO1(148) (+ M)',
                   Tmin=300.0, Tmax=2500.0,
                   Pmin=(0.01, 'atm'), Pmax=(98.692, 'atm'),
                   coeffs=[[ 9.15900e+00,  2.07100e+00,  3.82900e-02,  1.21000e-02],
                           [-8.92500e-01,  1.15700e-01,  6.29800e-02,  2.03300e-02],
                           [-5.37500e-01,  7.23100e-02,  3.87700e-02,  1.20100e-02],
                           [-2.32200e-01,  4.34000e-02,  2.17600e-02,  5.29500e-03],
                           [-1.06400e-01,  2.79600e-02,  1.29000e-02,  1.94400e-03],
                           [-1.14500e-02,  1.76600e-02,  7.68700e-03,  6.24500e-04]])

# Reaction 14
three_body_reaction('H2(6) + M <=> H(3) + H(3) + M', [4.580000e+19, -1.4, 104.39],
                    efficiencies='CH2O(19):2.5 CO(12):1.95 CO2(13):3.83 H2(6):2.55 H2O(7):12.02 N2:1.01')

# Reaction 15
reaction('O2(2) + CH2(T)(17) <=> H2(6) + CO2(13)', [1.836000e+12, 0.0, 1.0])

# Reaction 16
reaction('O2(2) + H(3) <=> O(4) + OH(5)', [9.841000e+13, 0.0, 15.31])

# Reaction 17
reaction('O(4) + H2(6) <=> H(3) + OH(5)', [3.848000e+12, 0.0, 7.95],
         options='duplicate')

# Reaction 18
reaction('O(4) + H2(6) <=> H(3) + OH(5)', [6.687000e+14, 0.0, 19.18],
         options='duplicate')

# Reaction 19
three_body_reaction('O(4) + O(4) + M <=> O2(2) + M', [6.160000e+15, -0.5, 0.0],
                    efficiencies='CH2O(19):2.5 CO(12):1.9 CO2(13):3.8 H2(6):2.5 H2O(7):12.0')

# Reaction 20
three_body_reaction('O(4) + H(3) + M <=> OH(5) + M', [4.710000e+18, -1.0, 0.0],
                    efficiencies='CH2O(19):2.5 CO(12):2.52 CO2(13):5.01 H2(6):2.5 H2O(7):15.8 N2:1.32')

# Reaction 21
falloff_reaction('O(4) + CO(12) (+ M) <=> CO2(13) (+ M)',
                 kf=[1.880000e+11, 0.0, 2.43],
                 kf0=[1.400000e+21, -2.1, 5.5],
                 efficiencies='CH2O(19):2.5 CO(12):1.9 CO2(13):3.8 H2O(7):12.0')

# Reaction 22
reaction('O2(2) + CO(12) <=> O(4) + CO2(13)', [1.533000e+12, 0.0, 47.7])

# Reaction 23
reaction('O(4) + CH2(T)(17) <=> H(3) + H(3) + CO(12)', [8.000000e+13, 0.0, 0.0])

# Reaction 24
reaction('O(4) + CH2(S)(24) <=> H(3) + H(3) + CO(12)', [3.000000e+13, 0.0, 0.0])

# Reaction 25
reaction('OH(5) + CH2(T)(17) <=> H(3) + CH2O(19)', [2.899000e+13, 0.12, -0.162])

# Reaction 26
reaction('O2(2) + CH2(T)(17) <=> O(4) + CH2O(19)', [1.600000e+12, 0.0, 1.0])

# Reaction 27
reaction('OH(5) + CH2(S)(24) <=> H(3) + CH2O(19)', [3.000000e+13, 0.0, 0.0])

# Reaction 28
reaction('CO2(13) + CH2(S)(24) <=> CO(12) + CH2O(19)', [6.620000e+12, 0.0, 0.0])

# Reaction 29
chebyshev_reaction('O(4) + CH2O(19) (+ M) <=> CH2O2(161) (+ M)',
                   Tmin=300.0, Tmax=2500.0,
                   Pmin=(0.01, 'atm'), Pmax=(98.692, 'atm'),
                   coeffs=[[ 5.59500e+00,  1.99300e+00, -4.76600e-03, -2.62700e-03],
                           [ 2.26000e+00,  5.21400e-03,  3.60700e-03,  1.98300e-03],
                           [-3.46000e-01,  7.94200e-04,  5.53200e-04,  3.07500e-04],
                           [-1.30100e-01,  3.42400e-05,  2.46900e-05,  1.44900e-05],
                           [-5.17000e-02, -1.23500e-05, -8.81600e-06, -5.09700e-06],
                           [-1.00900e-03, -2.83700e-04, -1.96200e-04, -1.07700e-04]])

# Reaction 30
chebyshev_reaction('O(4) + CH2O(19) (+ M) <=> C1OO1(148) (+ M)',
                   Tmin=300.0, Tmax=2500.0,
                   Pmin=(0.01, 'atm'), Pmax=(98.692, 'atm'),
                   coeffs=[[ 4.80100e+00,  1.99300e+00, -4.89200e-03, -2.69600e-03],
                           [ 1.96500e+00,  5.15400e-03,  3.56500e-03,  1.95900e-03],
                           [-1.75800e-01,  8.02200e-04,  5.58700e-04,  3.10400e-04],
                           [ 7.53100e-03,  5.39800e-05,  3.83600e-05,  2.20200e-05],
                           [ 3.43500e-02, -4.99100e-06, -3.70200e-06, -2.26300e-06],
                           [ 1.73800e-02, -2.88600e-04, -1.99500e-04, -1.09500e-04]])

# Reaction 31
chebyshev_reaction('CH2O(19) (+ M) <=> H2(6) + CO(12) (+ M)',
                   Tmin=300.0, Tmax=2500.0,
                   Pmin=(0.01, 'atm'), Pmax=(98.692, 'atm'),
                   coeffs=[[-1.64200e+01,  7.86200e-01, -2.61800e-01,  3.74100e-02],
                           [ 2.25700e+01,  4.15600e-01,  9.50100e-03, -4.50700e-02],
                           [-2.89900e-01,  1.90500e-01,  2.55200e-02, -1.69700e-02],
                           [-1.64800e-01,  8.86200e-02,  1.21100e-02, -4.29500e-03],
                           [-4.97000e-02, -1.72300e-02,  2.05600e-02,  3.17300e-03],
                           [-4.38200e-02,  1.56800e-02, -2.24100e-03,  9.17600e-04]])

# Reaction 32
pdep_arrhenius('H(3) + CH2F(45) <=> CH3F(1)',
               [(0.1, 'atm'), 2.000000e+16, -2.62, 11.62],