units(length='cm', time='s', quantity='mol', act_energy='kcal/mol')

ideal_gas(name='gas',
          elements="H D T C Ci O Oi N Ne Ar He Si S F Cl Br I X",
          species="""N2          Ne          CH3F(1)     O2(2)
                     H(3)        OH(5)       H2(6)       CO(12)
                     CO2(13)     CH2(T)(17)  CH2(S)(24)  HF(38)
                     C1OO1(148)  CH2O2(161)""",
          reactions='all',
          transport='Mix',
          initial_state=state(temperature=300.0, pressure=OneAtm))

#-------------------------------------------------------------------------------
# Element data
#-------------------------------------------------------------------------------

element(symbol='Ci', atomic_mass=13.003)
element(symbol='D', atomic_mass=2.014)
element(symbol='Oi', atomic_mass=17.999)
element(symbol='T', atomic_mass=3.016)
element(symbol='X', atomic_mass=195.083)
#-------------------------------------------------------------------------------
# Species data
#-------------------------------------------------------------------------------

species(name='N2',
        atoms='N:2',
        thermo=(NASA([200.00, 1000.00],
                     [ 3.53101000E+00, -1.23661000E-04, -5.02999000E-07,
                       2.43531000E-09, -1.40881000E-12, -1.04698000E+03,
                       2.96747000E+00]),
                NASA([1000.00, 6000.00],
                     [ 2.95258000E+00,  1.39690000E-03, -4.92632000E-07,
                       7.86010000E-11, -4.60755000E-15, -9.23949000E+02,
                       5.87189000E+00])),
        transport=gas_transport(geom='linear',
                                diam=3.621,
                                well_depth=97.53,
                                polar=1.76,
                                rot_relax=4.0))

species(name='Ne',
        atoms='Ne:1',
        thermo=(NASA([200.00, 1000.00],
                     [ 2.50000000E+00,  0.00000000E+00,  0.00000000E+00,
                       0.00000000E+00,  0.00000000E+00, -7.45375000E+02,
                       3.35532000E+00]),
                NASA([1000.00, 6000.00],
                     [ 2.50000000E+00,  0.00000000E+00,  0.00000000E+00,
                       0.00000000E+00,  0.00000000E+00, -7.45375000E+02,
                       3.35532000E+00])),
        transport=gas_transport(geom='atom',
                                diam=3.758,
                                well_depth=148.6))

species(name='CH3F(1)',
        atoms='C:1 F:1 H:3',
        thermo=(NASA([200.00, 1000.00],
                     [ 5.13884995E+00, -1.52225700E-02,  6.07163912E-05,
                      -6.52865359E-08,  2.38092602E-11, -2.96183839E+04,
                      -1.55798184E-01]),
                NASA([1000.00, 3000.00],
                     [ 1.09543626E+00,  1.30467027E-02, -6.34689480E-06,
                       1.49984057E-09, -1.39689327E-13, -2.92619821E+04,
                       1.67625962E+01])),
        transport=gas_transport(geom='nonlinear',
                                diam=4.123,
                                well_depth=262.0,
                                dipole=1.8))

species(name='O2(2)',
        atoms='O:2',
        thermo=(NASA([100.00, 1074.55],
                     [ 3.53732243E+00, -1.21571655E-03,  5.31620279E-06,
                      -4.89446465E-09,  1.45846271E-12, -1.03858849E+03,
                       4.68368180E+00]),
                NASA([1074.55, 5000.00],
                     [ 3.15382077E+00,  1.67804376E-03, -7.69974269E-07,
                       1.51275470E-10, -1.08782420E-14, -1.04081727E+03,
                       6.16755852E+00])),
        transport=gas_transport(geom='linear',
                                diam=3.458,
                                well_depth=107.4,
                                polar=1.6,
                                rot_relax=3.8))

species(name='H(3)',
        atoms='H:1',
        thermo=(NASA([100.00, 4230.24],
                     [ 2.50000000E+00,  9.05028667E-14, -1.20494648E-16,
                       5.23431737E-20, -6.99813850E-24,  2.54742178E+04,
                      -4.44972896E-01]),
                NASA([4230.24, 5000.00],
                     [ 2.49999605E+00,  3.58763060E-09, -1.22015473E-12,
                       1.84118067E-16, -1.04000002E-20,  2.54742212E+04,
                      -4.44947992E-01])),
        transport=gas_transport(geom='atom',
                                diam=2.05,
                                well_depth=145.0))

species(name='OH(5)',
        atoms='H:1 O:1',
        thermo=(NASA([100.00, 1145.76],
                     [ 3.51456840E+00,  2.92733461E-05, -5.32150328E-07,
                       1.01947489E-09, -3.85939283E-13,  3.41425418E+03,
                       2.10434754E+00]),
                NASA([1145.76, 5000.00],
                     [ 3.07193719E+00,  6.04019927E-04, -1.39806418E-08,
                      -2.13440701E-11,  2.48061276E-15,  3.57938795E+03,
                       4.57801500E+00])),
        transport=gas_transport(geom='linear',
                                diam=2.75,
                                well_depth=80.0))

species(name='H2(6)',
        atoms='H:2',
        thermo=(NASA([100.00, 1959.08],
                     [ 3.43536431E+00,  2.12708634E-04, -2.78621143E-07,
                       3.40264107E-10, -7.76024422E-14, -1.03135985E+03,
                      -3.90841808E+00]),
                NASA([1959.08, 5000.00],
                     [ 2.78814513E+00,  5.87667842E-04,  1.58997823E-07,
                      -5.52713751E-11,  4.34292562E-15, -5.96132053E+02,
                       1.12855390E-01])),
        transport=gas_transport(geom='linear',
                                diam=2.92,
                                well_depth=38.0,
                                polar=0.79,
                                rot_relax=280.0))

species(name='CO(12)',
        atoms='C:1 O:1',
        thermo=(NASA([100.00, 1571.64],
                     [ 3.56837990E+00, -8.52124792E-04,  2.48917582E-06,
                      -1.56330849E-09,  3.13594738E-13, -1.42842549E+04,
                       3.57912211E+00]),
                NASA([1571.64, 5000.00],
                     [ 2.91306747E+00,  1.64657731E-03, -6.88614547E-07,
                       1.21037299E-10, -7.84017568E-15, -1.41808850E+04,
                       6.71045295E+00])),
        transport=gas_transport(geom='linear',
                                diam=3.65,
                                well_depth=98.1,
                                polar=1.95,
                                rot_relax=1.8))

species(name='CO2(13)',
        atoms='C:1 O:2',
        thermo=(NASA([200.00, 1000.00],
                     [ 2.35681000E+00,  8.98413000E-03, -7.12206000E-06,
                       2.45730000E-09, -1.42885000E-13, -4.83720000E+04,
                       9.90090000E+00]),
                NASA([1000.00, 6000.00],
                     [ 4.63651000E+00,  2.74146000E-03, -9.95898000E-07,
                       1.60387000E-10, -9.16199000E-15, -4.90249000E+04,
                      -1.93490000E+00])),
        transport=gas_transport(geom='linear',
                                diam=3.763,
                                well_depth=244.001,
                                polar=2.65,
                                rot_relax=2.1))

species(name='CH2(T)(17)',
        atoms='C:1 H:2',
        thermo=(NASA([100.00, 1104.65],
                     [ 4.01192375E+00, -1.54977502E-04,  3.26297499E-06,
                      -2.40421511E-09,  5.69495776E-13,  4.58676802E+04,
                       5.33200966E-01]),
                NASA([1104.65, 5000.00],
                     [ 3.14983330E+00,  2.96674362E-03, -9.76056467E-07,
                       1.54115432E-10, -9.50339412E-15,  4.60581392E+04,
                       4.77807981E+00])),
        transport=gas_transport(geom='nonlinear',
                                diam=3.8,
                                well_depth=144.001))

species(name='CH2(S)(24)',
        atoms='C:1 H:2',
        thermo=(NASA([100.00, 1442.36],
                     [ 4.10264356E+00, -1.44068224E-03,  5.45068476E-06,
                      -3.58001597E-09,  7.56191373E-13,  5.04005785E+04,
                      -4.11765120E-01]),
                NASA([1442.36, 5000.00],
                     [ 2.62647665E+00,  3.94762534E-03, -1.49923933E-06,
                       2.54538711E-10, -1.62955489E-14,  5.06917518E+04,
                       6.78377550E+00])),
        transport=gas_transport(geom='nonlinear',
                                diam=3.8,
                                well_depth=144.001))

species(name='HF(38)',
        atoms='F:1 H:1',
        thermo=(NASA([200.00, 1000.00],
                     [ 3.47861056E+00,  2.30210129E-04, -7.26207054E-07,
                       8.90789862E-10, -2.44257848E-13, -3.38440904E+04,
                       1.03719885E+00]),
                NASA([1000.00, 6000.00],
                     [ 2.92408264E+00,  8.52279140E-04, -1.60115398E-07,
                       1.31455482E-11, -2.46281644E-16, -3.36186854E+04,
                       4.19417238E+00])),
        transport=gas_transport(geom='linear',
                                diam=3.148,
                                well_depth=330.001,
                                dipole=1.92,
                                polar=2.46,
                                rot_relax=1.0))

species(name='C1OO1(148)',
        atoms='C:1 H:2 O:2',
        thermo=(NASA([100.00, 885.25],
                     [ 3.54060874E+00, -1.77458962E-02,  1.31424985E-04,
                      -1.83793243E-07,  7.77334191E-11, -1.97383350E+03,
                       7.10119568E+00]),
                NASA([885.25, 5000.00],
                     [ 2.11785178E+01, -2.37527585E-02,  1.67393544E-05,
                      -3.39194494E-09,  2.31172034E-13, -7.98402790E+03,
                      -9.21501786E+01])),
        transport=gas_transport(geom='nonlinear',
                                diam=5.143,
                                well_depth=362.248))

species(name='CH2O2(161)',
        atoms='C:1 H:2 O:2',
        thermo=(NASA([100.00, 1894.83],
                     [ 5.67715279E+00, -7.71643662E-03,  2.71172005E-05,
                      -1.79272072E-08,  3.39821691E-12,  6.33773572E+03,
                       9.67261888E-01]),
                NASA([1894.83, 5000.00],
                     [ 6.51974308E+00,  1.50030861E-02, -1.02616497E-05,
                       2.04723467E-09, -1.37416781E-13,  1.62051405E+03,
                      -1.52412832E+01])),
        transport=gas_transport(geom='nonlinear',
                                diam=5.898,
                                well_depth=436.691))

#-------------------------------------------------------------------------------
# Reaction data
#-------------------------------------------------------------------------------

# Reaction 1
pdep_arrhenius('HF(38) + CH2(T)(17) <=> CH3F(1)',
               [(0.1, 'atm'), 1.500000e+27, -5.16, -1.405],
               [(0.215, 'atm'), 1.190000e+27, -5.03, -1.176],
               [(0.464, 'atm'), 7.150000e+26, -4.88, -0.966],
               [(1.0, 'atm'), 3.090000e+26, -4.68, -0.786],
               [(2.15, 'atm'), 8.910000e+25, -4.43, -0.664],
               [(4.64, 'atm'), 1.600000e+25, -4.13, -0.621],
               [(10.0, 'atm'), 1.700000e+24, -3.77, -0.681],
               [(21.5, 'atm'), 1.060000e+23, -3.34, -0.86],
               [(46.4, 'atm'), 4.030000e+21, -2.86, -1.159],
               [(100.0, 'atm'), 9.970000e+19, -2.33, -1.577])

# Reaction 2
reaction('O2(2) + CH2(T)(17) <=> H(3) + H(3) + CO2(13)', [1.844000e+12, 0.0, 1.0])

# Reaction 3
reaction('N2 + CH2(S)(24) <=> N2 + CH2(T)(17)', [1.200000e+13, 0.0, 0.471])

# Reaction 4
reaction('O2(2) + CH2(S)(24) <=> O2(2) + CH2(T)(17)', [3.130000e+13, 0.0, 0.0])

# Reaction 5
reaction('CO2(13) + CH2(S)(24) <=> CO2(13) + CH2(T)(17)', [1.330000e+13, 0.0, 0.0])

# Reaction 6
falloff_reaction('CH3F(1) (+ M) <=> HF(38) + CH2(S)(24) (+ M)',
                 kf=[1.000000e+14, 0.0, 85.0],
                 kf0=[1.500000e+16, 0.0, 67.499],
                 efficiencies='CH3F(1):6.0 CO(12):1.5 CO2(13):2.0 H2(6):2.0 HF(38):2.0')

# Reaction 7
chebyshev_reaction('O2(2) + CH2(T)(17) (+ M) <=> C1OO1(148) (+ M)',
                   Tmin=300.0, Tmax=2500.0,
                   Pmin=(0.01, 'atm'), Pmax=(98.692, 'atm'),
                   coeffs=[[ 3.67800e+00,  2.00000e+00, -1.66800e-04, -9.25700e-05],
                           [ 1.89600e+00,  1.26500e-04,  8.80500e-05,  4.88700e-05],
                           [ 6.35400e-01,  3.73800e-06,  2.60200e-06,  1.44500e-06],
                           [ 2.71400e-01, -3.30800e-05, -2.30200e-05, -1.27800e-05],
                           [ 1.17200e-01, -1.40400e-05, -9.77400e-06, -5.42700e-06],
                           [ 4.96500e-02, -8.54000e-06, -5.94500e-06, -3.30100e-06]])

# Reaction 8
reaction('CO(12) + CH2(S)(24) <=> CO(12) + CH2(T)(17)', [9.000000e+12, 0.0, 0.0])

# Reaction 9
reaction('OH(5) + CO(12) <=> H(3) + CO2(13)', [6.187000e+04, 2.053, -0.356],
         options='duplicate')

# Reaction 10
reaction('OH(5) + CO(12) <=> H(3) + CO2(13)', [5.017000e+12, -0.664, 0.332],
         options='duplicate')

# Reaction 11
reaction('O2(2) + CH2(T)(17) <=> H(3) + OH(5) + CO(12)', [2.643000e+12, 0.0, 1.0])

# Reaction 12
chebyshev_reaction('O2(2) + CH2(T)(17) (+ M) <=> CH2O2(161) (+ M)',
                   Tmin=300.0, Tmax=2500.0,
                   Pmin=(0.01, 'atm'), Pmax=(98.692, 'atm'),
                   coeffs=[[ 4.95200e+00,  2.00000e+00, -1.70400e-04, -9.45700e-05],
                           [ 2.05500e+00,  1.30200e-04,  9.05800e-05,  5.02800e-05],
                           [ 4.11400e-01,  4.61300e-06,  3.21100e-06,  1.78300e-06],
                           [ 1.37800e-01, -3.33500e-05, -2.32100e-05, -1.28800e-05],
                           [ 3.32400e-02, -1.39700e-05, -9.72600e-06, -5.40100e-06],
                           [ 4.98900e-03, -8.46100e-06, -5.89000e-06, -3.27000e-06]])

# Reaction 13
chebyshev_reaction('CH2O2(161) (+ M) <=> C1OO1(148) (+ M)',
                   Tmin=300.0, Tmax=2500.0,
                   Pmin=(0.01, 'atm'), Pmax=(98.692, 'atm'),
                   coeffs=[[ 9.15900e+00,  2.07100e+00,  3.82900e-02,  1.21000e-02],
                           [-8.92500e-01,  1.15700e-01,  6.29800e-02,  2.03300e-02],
                           [-5.37500e-01,  7.23100e-02,  3.87700e-02,  1.20100e-02],
                           [-2.32200e-01,  4.34000e-02,  2.17600e-02,  5.29500e-03],
                           [-1.06400e-01,  2.79600e-02,  1.29000e-02,  1.94400e-03],
                           [-1.14500e-02,  1.76600e-02,  7.68700e-03,  6.24500e-04]])

# Reaction 14
three_body_reaction('H2(6) + M <=> H(3) + H(3) + M', [4.580000e+19, -1.4, 104.39],
                    efficiencies='CO(12):1.95 CO2(13):3.83 H2(6):2.55 N2:1.01')

# Reaction 15
reaction('O2(2) + CH2(T)(17) <=> H2(6) + CO2(13)', [1.836000e+12, 0.0, 1.0])
