units(length='cm', time='s', quantity='mol', act_energy='kcal/mol')

ideal_gas(name='gas',
          elements="H D T C Ci O Oi N Ne Ar He Si S F Cl Br I X",
          species="""N2          Ne          CH3F(1)     O2(2)
                     H(3)        O(4)        OH(5)       H2(6)
                     H2O(7)      HO2(10)     H2O2(11)    CO(12)
                     CO2(13)     HCO(14)     CH(16)      CH2(T)(17)
                     CH3(18)     CH2O(19)    HCCO(20)    C2H2(22)
                     CH2(S)(24)  CH3O(26)    CH2CO(27)   C2H3(28)
                     C2H4(29)    CH4(30)     CH2OH(33)   CH3CO(34)
                     F(37)       HF(38)      CH2F(45)    CHFO(46)
                     CF2O(48)    CFO(50)     F2(77)      CFOOH(127)
                     FO2(145)    C1OO1(148)  CHO2(153)   CHO2(154)
                     CFO2(156)   CO4(158)    O2(159)     CH2O2(161)
                     OF(165)     CH2O2(166)  FO(169)     CH2FO(173)
                     S(178)      CO2(179)    OCF(182)    C2O4(194)
                     CHO3(195)   CO3(196)    CO3(197)    CH3O2(212)
                     CH2FO(225)  C2O3(229)   C2O4(230)   C2O3(234)
                     S(244)      C2HO3(248)  S(263)      CH2O3(304)
                     CH2O3(305)  C2FO3(323)  S(426)      CHFO3(448)
                     C2HO3(469)  C2HO4(474)  C2FO4(475)  S(586)
                     CFO3(608)   C2FO2(609)  C2O2(613)   OOF(618)
                     CO3(620)    CHO3(626)   CHFO3(630)  CHFO3(631)
                     C2HO2(641)  C2HO2(654)  CHO4(657)   CHO4(659)
                     CHO3(680)   CH2O4(721)  CH2O3(751)  CHFO3(753)
                     S(754)      C2HO5(758)  S(910)      S(912)
                     S(915)      C2H2O(984)  C2H2O(996)  S(1007)
                     S(1066)     S(1164)     S(1291)     S(1298)
                     S(1299)     S(1424)     S(1453)     S(1527)
                     S(1529)     S(1538)     S(1589)     S(1604)
                     S(1749)     S(2386)     C2O3(4126)  S(5064)""",
          reactions='all',
          transport='Mix',
          initial_state=state(temperature=300.0, pressure=OneAtm))

#-------------------------------------------------------------------------------
# Element data
#-------------------------------------------------------------------------------

element(symbol='Ci', atomic_mass=13.003)
element(symbol='D', atomic_mass=2.014)
element(symbol='Oi', atomic_mass=17.999)
element(symbol='T', atomic_mass=3.016)
element(symbol='X', atomic_mass=195.083)
#-------------------------------------------------------------------------------
# Species data
#-------------------------------------------------------------------------------

species(name='N2',
        atoms='N:2',
        thermo=(NASA([200.00, 1000.00],
                     [ 3.53101000E+00, -1.23661000E-04, -5.02999000E-07,
                       2.43531000E-09, -1.40881000E-12, -1.04698000E+03,
                       2.96747000E+00]),
                NASA([1000.00, 6000.00],
                     [ 2.95258000E+00,  1.39690000E-03, -4.92632000E-07,
                       7.86010000E-11, -4.60755000E-15, -9.23949000E+02,
                       5.87189000E+00])),
        transport=gas_transport(geom='linear',
                                diam=3.621,
                                well_depth=97.53,
                                polar=1.76,
                                rot_relax=4.0))

species(name='Ne',
        atoms='Ne:1',
        thermo=(NASA([200.00, 1000.00],
                     [ 2.50000000E+00,  0.00000000E+00,  0.00000000E+00,
                       0.00000000E+00,  0.00000000E+00, -7.45375000E+02,
                       3.35532000E+00]),
                NASA([1000.00, 6000.00],
                     [ 2.50000000E+00,  0.00000000E+00,  0.00000000E+00,
                       0.00000000E+00,  0.00000000E+00, -7.45375000E+02,
                       3.35532000E+00])),
        transport=gas_transport(geom='atom',
                                diam=3.758,
                                well_depth=148.6))

species(name='CH3F(1)',
        atoms='C:1 F:1 H:3',
        thermo=(NASA([200.00, 1000.00],
                     [ 5.13884995E+00, -1.52225700E-02,  6.07163912E-05,
                      -6.52865359E-08,  2.38092602E-11, -2.96183839E+04,
                      -1.55798184E-01]),
                NASA([1000.00, 3000.00],
                     [ 1.09543626E+00,  1.30467027E-02, -6.34689480E-06,
                       1.49984057E-09, -1.39689327E-13, -2.92619821E+04,
                       1.67625962E+01])),
        transport=gas_transport(geom='nonlinear',
                                diam=4.123,
                                well_depth=262.0,
                                dipole=1.8))

species(name='O2(2)',
        atoms='O:2',
        thermo=(NASA([100.00, 1074.55],
                     [ 3.53732243E+00, -1.21571655E-03,  5.31620279E-06,
                      -4.89446465E-09,  1.45846271E-12, -1.03858849E+03,
                       4.68368180E+00]),
                NASA([1074.55, 5000.00],
                     [ 3.15382077E+00,  1.67804376E-03, -7.69974269E-07,
                       1.51275470E-10, -1.08782420E-14, -1.04081727E+03,
                       6.16755852E+00])),
        transport=gas_transport(geom='linear',
                                diam=3.458,
                                well_depth=107.4,
                                polar=1.6,
                                rot_relax=3.8))

species(name='H(3)',
        atoms='H:1',
        thermo=(NASA([100.00, 4230.24],
                     [ 2.50000000E+00,  9.05028667E-14, -1.20494648E-16,
                       5.23431737E-20, -6.99813850E-24,  2.54742178E+04,
                      -4.44972896E-01]),
                NASA([4230.24, 5000.00],
                     [ 2.49999605E+00,  3.58763060E-09, -1.22015473E-12,
                       1.84118067E-16, -1.04000002E-20,  2.54742212E+04,
                      -4.44947992E-01])),
        transport=gas_transport(geom='atom',
                                diam=2.05,
                                well_depth=145.0))

species(name='O(4)',
        atoms='O:1',
        thermo=(NASA([100.00, 4230.24],
                     [ 2.50000000E+00,  9.05028667E-14, -1.20494648E-16,
                       5.23431737E-20, -6.99813850E-24,  2.92302441E+04,
                       5.12616427E+00]),
                NASA([4230.24, 5000.00],
                     [ 2.49999605E+00,  3.58763060E-09, -1.22015473E-12,
                       1.84118067E-16, -1.04000002E-20,  2.92302476E+04,
                       5.12618918E+00])),
        transport=gas_transport(geom='atom',
                                diam=2.75,
                                well_depth=80.0))

species(name='OH(5)',
        atoms='H:1 O:1',
        thermo=(NASA([100.00, 1145.76],
                     [ 3.51456840E+00,  2.92733461E-05, -5.32150328E-07,
                       1.01947489E-09, -3.85939283E-13,  3.41425418E+03,
                       2.10434754E+00]),
                NASA([1145.76, 5000.00],
                     [ 3.07193719E+00,  6.04019927E-04, -1.39806418E-08,
                      -2.13440701E-11,  2.48061276E-15,  3.57938795E+03,
                       4.57801500E+00])),
        transport=gas_transport(geom='linear',
                                diam=2.75,
                                well_depth=80.0))

species(name='H2(6)',
        atoms='H:2',
        thermo=(NASA([100.00, 1959.08],
                     [ 3.43536431E+00,  2.12708634E-04, -2.78621143E-07,
                       3.40264107E-10, -7.76024422E-14, -1.03135985E+03,
                      -3.90841808E+00]),
                NASA([1959.08, 5000.00],
                     [ 2.78814513E+00,  5.87667842E-04,  1.58997823E-07,
                      -5.52713751E-11,  4.34292562E-15, -5.96132053E+02,
                       1.12855390E-01])),
        transport=gas_transport(geom='linear',
                                diam=2.92,
                                well_depth=38.0,
                                polar=0.79,
                                rot_relax=280.0))

species(name='H2O(7)',
        atoms='H:2 O:1',
        thermo=(NASA([100.00, 1130.24],
                     [ 4.05763583E+00, -7.87935820E-04,  2.90877481E-06,
                      -1.47518847E-09,  2.12842891E-13, -3.02815866E+04,
                      -3.11364048E-01]),
                NASA([1130.24, 5000.00],
                     [ 2.84325052E+00,  2.75108536E-03, -7.81031435E-07,
                       1.07243628E-10, -5.79392151E-15, -2.99586128E+04,
                       5.91041953E+00])),
        transport=gas_transport(geom='nonlinear',
                                diam=2.605,
                                well_depth=572.402,
                                dipole=1.844,
                                rot_relax=4.0))

species(name='HO2(10)',
        atoms='H:1 O:2',
        thermo=(NASA([200.00, 1000.00],
                     [ 4.30180000E+00, -4.74912000E-03,  2.11583000E-05,
                      -2.42764000E-08,  9.29225000E-12,  2.64018000E+02,
                       3.71666000E+00]),
                NASA([1000.00, 5000.00],
                     [ 4.17229000E+00,  1.88118000E-03, -3.46277000E-07,
                       1.94658000E-11,  1.76257000E-16,  3.10207000E+01,
                       2.95768000E+00])),
        transport=gas_transport(geom='nonlinear',
                                diam=3.458,
                                well_depth=107.4,
                                rot_relax=1.0))

species(name='H2O2(11)',
        atoms='H:2 O:2',
        thermo=(NASA([200.00, 1000.00],
                     [ 4.31515000E+00, -8.47391000E-04,  1.76404000E-05,
                      -2.26763000E-08,  9.08950000E-12, -1.77067000E+04,
                       3.27373000E+00]),
                NASA([1000.00, 6000.00],
                     [ 4.57977000E+00,  4.05326000E-03, -1.29845000E-06,
                       1.98211000E-10, -1.13969000E-14, -1.80072000E+04,
                       6.64971000E-01])),
        transport=gas_transport(geom='nonlinear',
                                diam=3.458,
                                well_depth=107.4,
                                rot_relax=3.8))

species(name='CO(12)',
        atoms='C:1 O:1',
        thermo=(NASA([100.00, 1571.64],
                     [ 3.56837990E+00, -8.52124792E-04,  2.48917582E-06,
                      -1.56330849E-09,  3.13594738E-13, -1.42842549E+04,
                       3.57912211E+00]),
                NASA([1571.64, 5000.00],
                     [ 2.91306747E+00,  1.64657731E-03, -6.88614547E-07,
                       1.21037299E-10, -7.84017568E-15, -1.41808850E+04,
                       6.71045295E+00])),
        transport=gas_transport(geom='linear',
                                diam=3.65,
                                well_depth=98.1,
                                polar=1.95,
                                rot_relax=1.8))

species(name='CO2(13)',
        atoms='C:1 O:2',
        thermo=(NASA([200.00, 1000.00],
                     [ 2.35681000E+00,  8.98413000E-03, -7.12206000E-06,
                       2.45730000E-09, -1.42885000E-13, -4.83720000E+04,
                       9.90090000E+00]),
                NASA([1000.00, 6000.00],
                     [ 4.63651000E+00,  2.74146000E-03, -9.95898000E-07,
                       1.60387000E-10, -9.16199000E-15, -4.90249000E+04,
                      -1.93490000E+00])),
        transport=gas_transport(geom='linear',
                                diam=3.763,
                                well_depth=244.001,
                                polar=2.65,
                                rot_relax=2.1))

species(name='HCO(14)',
        atoms='C:1 H:1 O:1',
        thermo=(NASA([200.00, 1000.00],
                     [ 4.23755000E+00, -3.32075000E-03,  1.40030000E-05,
                      -1.34240000E-08,  4.37416000E-12,  3.87241000E+03,
                       3.30835000E+00]),
                NASA([1000.00, 6000.00],
                     [ 3.92002000E+00,  2.52279000E-03, -6.71004000E-07,
                       1.05616000E-10, -7.43798000E-15,  3.65343000E+03,
                       3.58077000E+00])),
        transport=gas_transport(geom='nonlinear',
                                diam=3.59,
                                well_depth=498.002))

species(name='CH(16)',
        atoms='C:1 H:1',
        thermo=(NASA([200.00, 1000.00],
                     [ 3.48976000E+00,  3.24322000E-04, -1.68998000E-06,
                       3.16284000E-09, -1.40618000E-12,  7.06126000E+04,
                       2.08428000E+00]),
                NASA([1000.00, 6000.00],
                     [ 2.52094000E+00,  1.76536000E-03, -4.61477000E-07,
                       5.92897000E-11, -3.34745000E-15,  7.09468000E+04,
                       7.40518000E+00])),
        transport=gas_transport(geom='linear',
                                diam=2.75,
                                well_depth=80.0))

species(name='CH2(T)(17)',
        atoms='C:1 H:2',
        thermo=(NASA([100.00, 1104.65],
                     [ 4.01192375E+00, -1.54977502E-04,  3.26297499E-06,
                      -2.40421511E-09,  5.69495776E-13,  4.58676802E+04,
                       5.33200966E-01]),
                NASA([1104.65, 5000.00],
                     [ 3.14983330E+00,  2.96674362E-03, -9.76056467E-07,
                       1.54115432E-10, -9.50339412E-15,  4.60581392E+04,
                       4.77807981E+00])),
        transport=gas_transport(geom='nonlinear',
                                diam=3.8,
                                well_depth=144.001))

species(name='CH3(18)',
        atoms='C:1 H:3',
        thermo=(NASA([200.00, 1000.00],
                     [ 3.65718000E+00,  2.12660000E-03,  5.45839000E-06,
                      -6.61810000E-09,  2.46571000E-12,  1.64227000E+04,
                       1.67354000E+00]),
                NASA([1000.00, 6000.00],
                     [ 2.97812000E+00,  5.79785000E-03, -1.97558000E-06,
                       3.07298000E-10, -1.79174000E-14,  1.65095000E+04,
                       4.72248000E+00])),
        transport=gas_transport(geom='nonlinear',
                                diam=3.8,
                                well_depth=144.001))

species(name='CH2O(19)',
        atoms='C:1 H:2 O:1',
        thermo=(NASA([200.00, 1000.00],
                     [ 4.79372000E+00, -9.90833000E-03,  3.73220000E-05,
                      -3.79285000E-08,  1.31773000E-11, -1.43792000E+04,
                       6.02798000E-01]),
                NASA([1000.00, 6000.00],
                     [ 3.16953000E+00,  6.19321000E-03, -2.25056000E-06,
                       3.65976000E-10, -2.20149000E-14, -1.45487000E+04,
                       6.04208000E+00])),
        transport=gas_transport(geom='nonlinear',
                                diam=3.59,
                                well_depth=498.002,
                                rot_relax=2.0))

species(name='HCCO(20)',
        atoms='C:2 H:1 O:1',
        thermo=(NASA([200.00, 1000.00],
                     [ 1.87608000E+00,  2.21205000E-02, -3.58869000E-05,
                       3.05403000E-08, -1.01281000E-11,  2.01634000E+04,
                       1.36968000E+01]),
                NASA([1000.00, 6000.00],
                     [ 5.91479000E+00,  3.71409000E-03, -1.30137000E-06,
                       2.06473000E-10, -1.21477000E-14,  1.93596000E+04,
                      -5.50567000E+00])),
        transport=gas_transport(geom='nonlinear',
                                diam=2.5,
                                well_depth=150.001,
                                rot_relax=1.0))

species(name='C2H2(22)',
        atoms='C:2 H:2',
        thermo=(NASA([200.00, 1000.00],
                     [ 8.08680000E-01,  2.33616000E-02, -3.55172000E-05,
                       2.80153000E-08, -8.50075000E-12,  2.64290000E+04,
                       1.39397000E+01]),
                NASA([1000.00, 6000.00],
                     [ 4.65878000E+00,  4.88397000E-03, -1.60829000E-06,
                       2.46975000E-10, -1.38606000E-14,  2.57594000E+04,
                      -3.99838000E+00])),
        transport=gas_transport(geom='linear',
                                diam=4.1,
                                well_depth=209.001,
                                rot_relax=2.5))

species(name='CH2(S)(24)',
        atoms='C:1 H:2',
        thermo=(NASA([100.00, 1442.36],
                     [ 4.10264356E+00, -1.44068224E-03,  5.45068476E-06,
                      -3.58001597E-09,  7.56191373E-13,  5.04005785E+04,
                      -4.11765120E-01]),
                NASA([1442.36, 5000.00],
                     [ 2.62647665E+00,  3.94762534E-03, -1.49923933E-06,
                       2.54538711E-10, -1.62955489E-14,  5.06917518E+04,
                       6.78377550E+00])),
        transport=gas_transport(geom='nonlinear',
                                diam=3.8,
                                well_depth=144.001))

species(name='CH3O(26)',
        atoms='C:1 H:3 O:1',
        thermo=(NASA([200.00, 1000.00],
                     [ 3.71181000E+00, -2.80463000E-03,  3.76551000E-05,
                      -4.73072000E-08,  1.86588000E-11,  1.29570000E+03,
                       6.57241000E+00]),
                NASA([1000.00, 6000.00],
                     [ 4.75779000E+00,  7.44142000E-03, -2.69705000E-06,
                       4.38091000E-10, -2.63537000E-14,  3.78112000E+02,
                      -1.96680000E+00])),
        transport=gas_transport(geom='nonlinear',
                                diam=3.69,
                                well_depth=417.002,
                                dipole=1.7,
                                rot_relax=2.0))

species(name='CH2CO(27)',
        atoms='C:2 H:2 O:1',
        thermo=(NASA([200.00, 1000.00],
                     [ 2.13241000E+00,  1.81319000E-02, -1.74093000E-05,
                       9.35336000E-09, -2.01725000E-12, -7.14809000E+03,
                       1.33808000E+01]),
                NASA([1000.00, 6000.00],
                     [ 5.75871000E+00,  6.35124000E-03, -2.25955000E-06,
                       3.62322000E-10, -2.15856000E-14, -8.08533000E+03,
                      -4.96490000E+00])),
        transport=gas_transport(geom='nonlinear',
                                diam=3.97,
                                well_depth=436.001,
                                rot_relax=2.0))

species(name='C2H3(28)',
        atoms='C:2 H:3',
        thermo=(NASA([200.00, 1000.00],
                     [ 3.36378000E+00,  2.65766000E-04,  2.79621000E-05,
                      -3.72987000E-08,  1.51590000E-11,  3.44750000E+04,
                       7.91510000E+00]),
                NASA([1000.00, 6000.00],
                     [ 4.15027000E+00,  7.54021000E-03, -2.62998000E-06,
                       4.15974000E-10, -2.45408000E-14,  3.38566000E+04,
                       1.72812000E+00])),
        transport=gas_transport(geom='nonlinear',
                                diam=4.1,
                                well_depth=209.001,
                                rot_relax=1.0))

species(name='C2H4(29)',
        atoms='C:2 H:4',
        thermo=(NASA([200.00, 1000.00],
                     [ 3.95920000E+00, -7.57051000E-03,  5.70990000E-05,
                      -6.91588000E-08,  2.69884000E-11,  5.08978000E+03,
                       4.09730000E+00]),
                NASA([1000.00, 6000.00],
                     [ 3.99183000E+00,  1.04834000E-02, -3.71721000E-06,
                       5.94628000E-10, -3.53630000E-14,  4.26866000E+03,
                      -2.69082000E-01])),
        transport=gas_transport(geom='nonlinear',
                                diam=3.971,
                                well_depth=280.801,
                                rot_relax=1.5))

species(name='CH4(30)',
        atoms='C:1 H:4',
        thermo=(NASA([100.00, 1084.11],
                     [ 4.20542250E+00, -5.35565721E-03,  2.51126079E-05,
                      -2.13766307E-08,  5.97537828E-12, -1.01619436E+04,
                      -9.21305438E-01]),
                NASA([1084.11, 5000.00],
                     [ 9.08223900E-01,  1.14541547E-02, -4.57177713E-06,
                       8.29200696E-10, -5.66322286E-14, -9.71995611E+03,
                       1.39933313E+01])),
        transport=gas_transport(geom='nonlinear',
                                diam=3.746,
                                well_depth=141.4,
                                polar=2.6,
                                rot_relax=13.0))

species(name='CH2OH(33)',
        atoms='C:1 H:3 O:1',
        thermo=(NASA([200.00, 1000.00],
                     [ 4.47834000E+00, -1.35070000E-03,  2.78485000E-05,
                      -3.64869000E-08,  1.47907000E-11, -3.50073000E+03,
                       3.30913000E+00]),
                NASA([1000.00, 6000.00],
                     [ 5.09314000E+00,  5.94761000E-03, -2.06497000E-06,
                       3.23008000E-10, -1.88126000E-14, -4.03410000E+03,
                      -1.84691000E+00])),
        transport=gas_transport(geom='nonlinear',
                                diam=3.69,
                                well_depth=417.002,
                                dipole=1.7,
                                rot_relax=2.0))

species(name='CH3CO(34)',
        atoms='C:2 H:3 O:1',
        thermo=(NASA([200.00, 1000.00],
                     [ 4.03587000E+00,  8.77295000E-04,  3.07100000E-05,
                      -3.92476000E-08,  1.52969000E-11, -2.68207000E+03,
                       7.86177000E+00]),
                NASA([1000.00, 6000.00],
                     [ 5.31372000E+00,  9.17378000E-03, -3.32204000E-06,
                       5.39475000E-10, -3.24524000E-14, -3.64504000E+03,
                      -1.67576000E+00])),
        transport=gas_transport(geom='nonlinear',
                                diam=3.97,
                                well_depth=436.001,
                                rot_relax=2.0))

species(name='F(37)',
        atoms='F:1',
        thermo=(NASA([200.00, 1000.00],
                     [ 2.41932420E+00,  2.93848449E-03, -8.91441625E-06,
                       9.90063549E-09, -3.78936967E-12,  8.99832590E+03,
                       4.73388583E+00]),
                NASA([1000.00, 3000.00],
                     [ 2.73547309E+00, -3.18376264E-04,  1.80404747E-07,
                      -4.76650983E-11,  4.82178946E-15,  9.00723724E+03,
                       3.62700929E+00])),
        transport=gas_transport(geom='atom',
                                diam=2.75,
                                well_depth=80.0))

species(name='HF(38)',
        atoms='F:1 H:1',
        thermo=(NASA([200.00, 1000.00],
                     [ 3.47861056E+00,  2.30210129E-04, -7.26207054E-07,
                       8.90789862E-10, -2.44257848E-13, -3.38440904E+04,
                       1.03719885E+00]),
                NASA([1000.00, 6000.00],
                     [ 2.92408264E+00,  8.52279140E-04, -1.60115398E-07,
                       1.31455482E-11, -2.46281644E-16, -3.36186854E+04,
                       4.19417238E+00])),
        transport=gas_transport(geom='linear',
                                diam=3.148,
                                well_depth=330.001,
                                dipole=1.92,
                                polar=2.46,
                                rot_relax=1.0))

species(name='CH2F(45)',
        atoms='C:1 F:1 H:2',
        thermo=(NASA([200.00, 1000.00],
                     [ 3.77938639E+00, -3.97612680E-04,  1.87718416E-05,
                      -2.40689064E-08,  9.55051041E-12, -4.99331979E+03,
                       6.23834236E+00]),
                NASA([1000.00, 3000.00],
                     [ 3.20982001E+00,  6.97057987E-03, -3.20030736E-06,
                       7.19313063E-10, -6.41861685E-14, -5.05791555E+03,
                       7.93158384E+00])),
        transport=gas_transport(geom='nonlinear',
                                diam=4.123,
                                well_depth=262.0,
                                dipole=1.8))

species(name='CHFO(46)',
        atoms='C:1 F:1 H:1 O:1',
        thermo=(NASA([200.00, 1000.00],
                     [ 3.75304076E+00, -1.54852861E-03,  2.57217119E-05,
                      -3.26531112E-08,  1.28244723E-11, -4.72465247E+04,
                       7.84452039E+00]),
                NASA([1000.00, 3000.00],
                     [ 3.35899933E+00,  7.98029314E-03, -4.19403281E-06,
                       1.05585946E-09, -1.03534032E-13, -4.74866206E+04,
                       7.99119076E+00])),
        transport=gas_transport(geom='nonlinear',
                                diam=4.906,
                                well_depth=350.5))

species(name='CF2O(48)',
        atoms='C:1 F:2 O:1',
        thermo=(NASA([200.00, 1000.00],
                     [ 2.21606409E+00,  1.32380510E-02, -4.23784631E-06,
                      -6.67863953E-09,  4.37910484E-12, -7.41605798E+04,
                       1.47729710E+01]),
                NASA([1000.00, 3000.00],
                     [ 5.20117804E+00,  6.61606316E-03, -3.82471522E-06,
                       1.03036640E-09, -1.06158338E-13, -7.50026091E+04,
                      -8.80396197E-01])),
        transport=gas_transport(geom='nonlinear',
                                diam=4.906,
                                well_depth=350.5))

species(name='CFO(50)',
        atoms='C:1 F:1 O:1',
        thermo=(NASA([200.00, 1000.00],
                     [ 3.44442764E+00,  3.58299017E-03,  3.31756350E-06,
                      -7.17713557E-09,  3.14601149E-12, -2.25576575E+04,
                       9.13877709E+00]),
                NASA([1000.00, 3000.00],
                     [ 4.06597351E+00,  3.97110832E-03, -2.26619886E-06,
                       6.04870210E-10, -6.18959515E-14, -2.28159283E+04,
                       5.45702826E+00])),
        transport=gas_transport(geom='nonlinear',
                                diam=4.0,
                                well_depth=860.0))

species(name='F2(77)',
        atoms='F:2',
        thermo=(NASA([200.00, 1000.00],
                     [ 3.05475955E+00,  2.39284287E-03,  1.02445470E-06,
                      -4.21369121E-09,  2.20531535E-12, -1.01889608E+03,
                       6.25912496E+00]),
                NASA([1000.00, 6000.00],
                     [ 3.88707643E+00,  7.48865564E-04, -1.61882213E-07,
                      -1.33318562E-11,  2.95334585E-15, -1.24339610E+03,
                       1.89730015E+00])),
        transport=gas_transport(geom='linear',
                                diam=3.301,
                                well_depth=125.7,
                                polar=1.6,
                                rot_relax=3.8))

species(name='CFOOH(127)',
        atoms='C:1 F:1 H:1 O:2',
        thermo=(NASA([200.00, 1000.00],
                     [ 6.97782922E-01,  2.85739134E-02, -3.24394422E-05,
                       1.82243860E-08, -3.96445547E-12, -7.49512994E+04,
                       2.10926135E+01]),
                NASA([1000.00, 3000.00],
                     [ 6.02781603E+00,  9.00158456E-03, -5.18114686E-06,
                       1.38567672E-09, -1.41745778E-13, -7.61361312E+04,
                      -5.12554403E+00])),
        transport=gas_transport(geom='nonlinear',
                                diam=5.199,
                                well_depth=433.932))

species(name='FO2(145)',
        atoms='F:1 O:2',
        thermo=(NASA([200.00, 1000.00],
                     [ 3.09573104E+00,  1.13826157E-02, -1.72330580E-05,
                       1.38769848E-08, -4.52972342E-12,  1.49569342E+03,
                       1.07381197E+01]),
                NASA([1000.00, 3000.00],
                     [ 5.09030167E+00,  2.70913318E-03, -1.59858244E-06,
                       4.37280609E-10, -4.55829164E-14,  1.08947013E+03,
                       1.17522481E+00])),
        transport=gas_transport(geom='nonlinear',
                                diam=4.958,
                                well_depth=366.412))

species(name='C1OO1(148)',
        atoms='C:1 H:2 O:2',
        thermo=(NASA([100.00, 885.25],
                     [ 3.54060874E+00, -1.77458962E-02,  1.31424985E-04,
                      -1.83793243E-07,  7.77334191E-11, -1.97383350E+03,
                       7.10119568E+00]),
                NASA([885.25, 5000.00],
                     [ 2.11785178E+01, -2.37527585E-02,  1.67393544E-05,
                      -3.39194494E-09,  2.31172034E-13, -7.98402790E+03,
                      -9.21501786E+01])),
        transport=gas_transport(geom='nonlinear',
                                diam=5.143,
                                well_depth=362.248))

species(name='CHO2(153)',
        atoms='C:1 H:1 O:2',
        thermo=(NASA([200.00, 1000.00],
                     [ 2.92208000E+00,  7.62454000E-03,  3.29884000E-06,
                      -1.07135000E-08,  5.11587000E-12, -2.30282000E+04,
                       1.12926000E+01]),
                NASA([1000.00, 6000.00],
                     [ 5.39206000E+00,  4.11221000E-03, -1.48195000E-06,
                       2.39875000E-10, -1.43903000E-14, -2.38607000E+04,
                      -2.23529000E+00])),
        transport=gas_transport(geom='nonlinear',
                                diam=3.59,
                                well_depth=498.0,
                                rot_relax=2.0))

species(name='CHO2(154)',
        atoms='C:1 H:1 O:2',
        thermo=(NASA([100.00, 1184.08],
                     [ 3.51544885E+00,  1.12656040E-02, -9.58081596E-06,
                       4.36316685E-09, -8.44577734E-13, -1.66722453E+04,
                       7.37034189E+00]),