units(length='cm', time='s', quantity='mol', act_energy='cal/mol')

ideal_gas(name='gas',
          elements="C F O H S Ar N He",
          species="""PFOcS      PFOcO      PFHpO      HF         FCO
                     CF2        C2F4       C7F15      C6F13      C5F11
                     C4F9       C3F7       C2F5       CF3        C2F6
                     C7F14      C6F12      HOCO       C5F10      FOC-OCF
                     C3F6cy     CO         COF2       F          F2
                     CF4        CHF3       CF3CF      C3F6bi     C3F6
                     C8F17      HOSO2      CF2CFO     PFOArot    PFlac
                     C7HF15     SO2        OH         H2O        H
                     H2         CF         C2F3       CF2CFCF    C3F4cyc
                     C4F6cyc    FCO2       CO2        O          O2
                     PFOA       AR         FCO3       HO2        H2O2
                     N2         CF3O2      C4F8       N          N2O
                     NO         NO2        CH4        C2H6       tr-HOFCO
                     cis-HOFCO  C5F10O     CF3O       HE         CF3O2H
                     C3F8""",
          reactions='all',
          initial_state=state(temperature=300.0, pressure=OneAtm))

#-------------------------------------------------------------------------------
# Species data
#-------------------------------------------------------------------------------

species(name='PFOcS',
        atoms='C:8 F:17 H:1 O:3 S:1',
        thermo=(NASA([200.00, 1000.00],
                     [ 0.00000000E+00,  0.00000000E+00,  0.00000000E+00,
                       0.00000000E+00,  0.00000000E+00,  0.00000000E+00,
                       0.00000000E+00]),
                NASA([1000.00, 3500.00],
                     [ 0.00000000E+00,  0.00000000E+00,  0.00000000E+00,
                       0.00000000E+00,  0.00000000E+00,  0.00000000E+00,
                       0.00000000E+00])))

species(name='PFOcO',
        atoms='C:8 F:16 O:1',
        thermo=(NASA([200.00, 1000.00],
                     [ 0.00000000E+00,  0.00000000E+00,  0.00000000E+00,
                       0.00000000E+00,  0.00000000E+00,  0.00000000E+00,
                       0.00000000E+00]),
                NASA([1000.00, 3500.00],
                     [ 0.00000000E+00,  0.00000000E+00,  0.00000000E+00,
                       0.00000000E+00,  0.00000000E+00,  0.00000000E+00,
                       0.00000000E+00])))

species(name='PFHpO',
        atoms='C:7 F:14 O:1',
        thermo=(NASA([200.00, 1000.00],
                     [ 0.00000000E+00,  0.00000000E+00,  0.00000000E+00,
                       0.00000000E+00,  0.00000000E+00,  0.00000000E+00,
                       0.00000000E+00]),
                NASA([1000.00, 3500.00],
                     [ 0.00000000E+00,  0.00000000E+00,  0.00000000E+00,
                       0.00000000E+00,  0.00000000E+00,  0.00000000E+00,
                       0.00000000E+00])))

species(name='HF',
        atoms='F:1 H:1',
        thermo=(NASA([200.00, 1000.00],
                     [ 3.48137108E+00,  2.12245717E-04, -6.86359044E-07,
                       8.56185857E-10, -2.34581508E-13, -3.38607305E+04,
                       1.02579990E+00]),
                NASA([1000.00, 6000.00],
                     [ 2.92491143E+00,  8.50523032E-04, -1.58179777E-07,
                       1.17507204E-11, -1.43309132E-16, -3.36352481E+04,
                       4.19018883E+00])),
        note='T2/11')

species(name='FCO',
        atoms='C:1 F:1 O:1',
        thermo=(NASA([200.00, 1000.00],
                     [ 3.37992233E+00,  4.19050548E-03,  2.12353533E-06,
                      -6.20586665E-09,  2.85352218E-12, -2.24063200E+04,
                       9.39466699E+00]),
                NASA([1000.00, 6000.00],
                     [ 5.01565891E+00,  1.95763376E-03, -7.49685297E-07,
                       1.25610155E-10, -7.59885072E-15, -2.29785255E+04,
                       3.69669039E-01])),
        note='(CFO/COF)T9/11')

species(name='CF2',
        atoms='C:1 F:2',
        thermo=(NASA([200.00, 1000.00],
                     [ 3.56435487E+00,  1.23021056E-03,  1.39909866E-05,
                      -2.13708286E-08,  9.10710807E-12, -2.42062274E+04,
                       7.83907808E+00]),
                NASA([1000.00, 6000.00],
                     [ 5.35787718E+00,  1.80622418E-03, -7.80465045E-07,
                       1.47642691E-10, -9.44754424E-15, -2.49202461E+04,
                      -2.63410779E+00])),
        note='ATcT/A')

species(name='C2F4',
        atoms='C:2 F:4',
        thermo=(NASA([200.00, 1000.00],
                     [ 1.99308667E+00,  3.84734406E-02, -5.32322754E-05,
                       3.92122720E-08, -1.19302747E-11, -8.31300869E+04,
                       1.53134111E+01]),
                NASA([1000.00, 6000.00],
                     [ 1.14178412E+01,  4.59161071E-03, -1.77520928E-06,
                       3.00598731E-10, -1.85921260E-14, -8.54207001E+04,
                      -3.16445526E+01])),
        note='FC-1114ATcT/A')

species(name='C7F15',
        atoms='C:7 F:15',
        thermo=(NASA([200.00, 1000.00],
                     [ 0.00000000E+00,  0.00000000E+00,  0.00000000E+00,
                       0.00000000E+00,  0.00000000E+00,  0.00000000E+00,
                       0.00000000E+00]),
                NASA([1000.00, 3500.00],
                     [ 0.00000000E+00,  0.00000000E+00,  0.00000000E+00,
                       0.00000000E+00,  0.00000000E+00,  0.00000000E+00,
                       0.00000000E+00])))

species(name='C6F13',
        atoms='C:6 F:13',
        thermo=(NASA([200.00, 1000.00],
                     [ 0.00000000E+00,  0.00000000E+00,  0.00000000E+00,
                       0.00000000E+00,  0.00000000E+00,  0.00000000E+00,
                       0.00000000E+00]),
                NASA([1000.00, 3500.00],
                     [ 0.00000000E+00,  0.00000000E+00,  0.00000000E+00,
                       0.00000000E+00,  0.00000000E+00,  0.00000000E+00,
                       0.00000000E+00])))

species(name='C5F11',
        atoms='C:5 F:11',
        thermo=(NASA([300.00, 1000.00],
                     [ 3.55270709E+00,  1.10483528E-01, -1.27311174E-04,
                       7.10929253E-08, -1.55858134E-11, -2.64795883E+05,
                       1.36531444E+01]),
                NASA([1000.00, 5000.00],
                     [ 3.34521751E+01,  1.36294076E-02, -5.82326411E-06,
                       1.10608198E-09, -7.75690801E-14, -2.72351065E+05,
                      -1.37301004E+02])))

species(name='C4F9',
        atoms='C:4 F:9',
        thermo=(NASA([300.00, 1000.00],
                     [ 2.65461412E+00,  9.52194245E-02, -1.21920292E-04,
                       7.73792341E-08, -1.97532012E-11, -2.13675144E+05,
                       1.71666782E+01]),
                NASA([1000.00, 5000.00],
                     [ 2.74753955E+01,  9.72880454E-03, -4.36763939E-06,
                       8.51461334E-10, -6.06268707E-14, -2.19726817E+05,
                      -1.06971068E+02])))

species(name='C3F7',
        atoms='C:3 F:7',
        thermo=(NASA([300.00, 1000.00],
                     [ 3.36211040E+00,  5.82300898E-02, -6.21199272E-05,
                       3.10600232E-08, -5.76810774E-12, -1.62795457E+05,
                       1.50845271E+01]),
                NASA([1000.00, 5000.00],
                     [ 1.95674777E+01,  8.06210967E-03, -3.44166950E-06,
                       6.53351684E-10, -4.58015343E-14, -1.67008345E+05,
                      -6.73113802E+01])))

species(name='C2F5',
        atoms='C:2 F:5',
        thermo=(NASA([200.00, 1000.00],
                     [ 2.35961717E+00,  4.06759536E-02, -3.97029086E-05,
                       1.42583579E-08, -3.10091084E-13, -1.10664598E+05,
                       1.70748780E+01]),
                NASA([1000.00, 6000.00],
                     [ 1.45575510E+01,  4.16794014E-03, -1.72789494E-06,
                       3.02375137E-10, -1.90423730E-14, -1.13836077E+05,
                      -4.50857249E+01])),
        note='PentaFluoT03/10')

species(name='CF3',
        atoms='C:1 F:3',
        thermo=(NASA([200.00, 1000.00],
                     [ 2.38179059E+00,  1.37269527E-02, -3.47674937E-06,
                      -9.01697393E-09,  5.57384083E-12, -5.74893250E+04,
                       1.43743316E+01]),
                NASA([1000.00, 6000.00],
                     [ 7.42981696E+00,  2.61728694E-03, -1.02141596E-06,
                       1.73975666E-10, -1.08028191E-14, -5.89817716E+04,
                      -1.22816891E+01])),
        note='ATcT/A')

species(name='C2F6',
        atoms='C:2 F:6',
        thermo=(NASA([200.00, 1000.00],
                     [ 1.56503771E+00,  5.10909623E-02, -5.07167534E-05,
                       1.88993955E-08, -7.73770882E-13, -1.64755649E+05,
                       1.89556430E+01]),
                NASA([1000.00, 6000.00],
                     [ 1.70284831E+01,  4.64174937E-03, -1.92155485E-06,
                       3.37538839E-10, -2.13452416E-14, -1.68769576E+05,
                      -5.98112608E+01])),
        note='FC-116T6/11')

species(name='C7F14',
        atoms='C:7 F:14',
        thermo=(NASA([200.00, 1000.00],
                     [ 0.00000000E+00,  0.00000000E+00,  0.00000000E+00,
                       0.00000000E+00,  0.00000000E+00,  0.00000000E+00,
                       0.00000000E+00]),
                NASA([1000.00, 3500.00],
                     [ 0.00000000E+00,  0.00000000E+00,  0.00000000E+00,
                       0.00000000E+00,  0.00000000E+00,  0.00000000E+00,
                       0.00000000E+00])))

species(name='C6F12',
        atoms='C:6 F:12',
        thermo=(NASA([200.00, 1000.00],
                     [ 0.00000000E+00,  0.00000000E+00,  0.00000000E+00,
                       0.00000000E+00,  0.00000000E+00,  0.00000000E+00,
                       0.00000000E+00]),
                NASA([1000.00, 3500.00],
                     [ 0.00000000E+00,  0.00000000E+00,  0.00000000E+00,
                       0.00000000E+00,  0.00000000E+00,  0.00000000E+00,
                       0.00000000E+00])))

species(name='HOCO',
        atoms='C:1 H:1 O:2',
        thermo=(NASA([200.00, 1000.00],
                     [ 2.89476190E+00,  8.72409710E-03, -4.90387397E-07,
                      -6.49000220E-09,  3.51803859E-12, -2.34113119E+04,
                       1.12391388E+01]),
                NASA([1000.00, 6000.00],
                     [ 5.40551345E+00,  3.91841122E-03, -1.37264274E-06,
                       2.18152683E-10, -1.29266159E-14, -2.38714810E+04,
                      -2.21101524E+00])),
        note='A5/14')

species(name='C5F10',
        atoms='C:5 F:10',
        thermo=(NASA([200.00, 1000.00],
                     [ 0.00000000E+00,  0.00000000E+00,  0.00000000E+00,
                       0.00000000E+00,  0.00000000E+00,  0.00000000E+00,
                       0.00000000E+00]),
                NASA([1000.00, 3500.00],
                     [ 0.00000000E+00,  0.00000000E+00,  0.00000000E+00,
                       0.00000000E+00,  0.00000000E+00,  0.00000000E+00,
                       0.00000000E+00])))

species(name='FOC-OCF',
        atoms='C:2 F:2 O:2',
        thermo=(NASA([300.00, 1000.00],
                     [ 1.98780938E+00,  3.44387761E-02, -3.84419658E-05,
                       2.11272009E-08, -4.60222319E-12, -6.18889113E+04,
                       1.85462773E+01]),
                NASA([1000.00, 5000.00],
                     [ 1.11729499E+01,  5.15158810E-03, -2.17760548E-06,
                       4.10752917E-10, -2.86690783E-14, -6.42478698E+04,
                      -2.79776774E+01])))

species(name='C3F6cy',
        atoms='C:3 F:6',
        thermo=(NASA([300.00, 1000.00],
                     [ 2.45226437E+00,  5.61912348E-02, -6.17888257E-05,
                       3.26772510E-08, -6.69388266E-12, -1.25205236E+05,
                       1.41713041E+01]),
                NASA([1000.00, 5000.00],
                     [ 1.78423969E+01,  7.74551283E-03, -3.30173910E-06,
                       6.26198320E-10, -4.38696538E-14, -1.29175330E+05,
                      -6.39043499E+01])))

species(name='CO',
        atoms='C:1 O:1',
        thermo=(NASA([200.00, 1000.00],
                     [ 3.57953350E+00, -6.10353690E-04,  1.01681430E-06,
                       9.07005860E-10, -9.04424490E-13, -1.43440860E+04,
                       3.50840930E+00]),
                NASA([1000.00, 6000.00],
                     [ 3.04848590E+00,  1.35172810E-03, -4.85794050E-07,
                       7.88536440E-11, -4.69807460E-15, -1.42661170E+04,
                       6.01709770E+00])),
        note='RUS79')

species(name='COF2',
        atoms='C:1 F:2 O:1',
        thermo=(NASA([200.00, 1000.00],
                     [ 2.12979433E+00,  1.41019782E-02, -5.94383395E-06,
                      -5.30542094E-09,  3.97366263E-12, -7.41637142E+04,
                       1.51109046E+01]),
                NASA([1000.00, 6000.00],
                     [ 6.81631709E+00,  3.16473302E-03, -1.21776278E-06,
                       2.05582278E-10, -1.26893138E-14, -7.55374518E+04,
                      -9.52865117E+00])))

species(name='F',
        atoms='F:1',
        thermo=(NASA([200.00, 1000.00],
                     [ 2.41967430E+00,  2.93929090E-03, -8.92122280E-06,
                       9.91185370E-09, -3.79471520E-12,  8.75732200E+03,
                       4.74689870E+00]),
                NASA([1000.00, 6000.00],
                     [ 2.67163390E+00, -1.74618530E-04,  6.90665040E-08,
                      -1.19534780E-11,  7.52367390E-16,  8.78741230E+03,
                       3.98425680E+00])),
        note='J6/82')

species(name='F2',
        atoms='F:2',
        thermo=(NASA([200.00, 1000.00],
                     [ 3.20832415E+00,  1.25919179E-03,  3.89747979E-06,
                      -7.22184984E-09,  3.31837862E-12, -1.03425794E+03,
                       5.61903603E+00]),
                NASA([1000.00, 6000.00],
                     [ 3.86166219E+00,  7.88367679E-04, -1.81982940E-07,
                      -9.17436560E-12,  2.65193472E-15, -1.23238655E+03,
                       2.04119869E+00])),
        note='REFELEMENTRUS89')

species(name='CF4',
        atoms='C:1 F:4',
        thermo=(NASA([200.00, 1000.00],
                     [ 1.05119594E+00,  2.78318369E-02, -2.46683439E-05,
                       6.75882532E-09,  9.14850873E-13, -1.13574198E+05,
                       1.81936795E+01]),
                NASA([1000.00, 6000.00],
                     [ 9.47336526E+00,  3.59407743E-03, -1.40334012E-06,
                       2.39113889E-10, -1.48513407E-14, -1.15816621E+05,
                      -2.49736848E+01])),
        note='FC-14g7/99')

species(name='CHF3',
        atoms='C:1 F:3 H:1',
        thermo=(NASA([200.00, 1000.00],
                     [ 2.73539203E+00,  8.72478957E-03,  1.74821510E-05,
                      -3.21504750E-08,  1.41694928E-11, -8.46839564E+04,
                       1.24879863E+01]),
                NASA([1000.00, 6000.00],
                     [ 7.24609031E+00,  5.42386441E-03, -2.02314394E-06,
                       3.34946402E-10, -2.04067524E-14, -8.63258026E+04,
                      -1.28982398E+01])),
        note='FLUOROFORMT9/99')

species(name='CF3CF',
        atoms='C:2 F:4',
        thermo=(NASA([300.00, 1000.00],
                     [ 2.04931067E+00,  3.39954432E-02, -3.73459456E-05,
                       1.93830029E-08, -3.80105807E-12, -6.35749601E+04,
                       1.82000066E+01]),
                NASA([1000.00, 5000.00],
                     [ 1.14360508E+01,  4.41544097E-03, -1.88683571E-06,
                       3.58426704E-10, -2.51381124E-14, -6.59845346E+04,
                      -2.93861425E+01])))

species(name='C3F6bi',
        atoms='C:3 F:6',
        thermo=(NASA([300.00, 1000.00],
                     [ 2.73098706E+00,  5.79597335E-02, -6.22844218E-05,
                       2.94460370E-08, -4.73995393E-12, -1.09953314E+05,
                       1.48315080E+01]),
                NASA([1000.00, 5000.00],
                     [ 2.00593670E+01,  4.92835250E-03, -2.26635016E-06,
                       4.49647750E-10, -3.24329453E-14, -1.14454639E+05,
                      -7.33458705E+01])))

species(name='C3F6',
        atoms='C:3 F:6',
        thermo=(NASA([200.00, 1000.00],
                     [ 2.35781302E+00,  5.80498289E-02, -6.67557556E-05,
                       3.68109988E-08, -7.92990472E-12, -1.41947032E+05,
                       1.68586208E+01]),
                NASA([1000.00, 6000.00],
                     [ 1.87296098E+01,  5.74055067E-03, -2.31302367E-06,
                       4.01017749E-10, -2.51741915E-14, -1.46123551E+05,
                      -6.59853551E+01])),
        note='CF2=CF-CF3A11/04')

species(name='C8F17',
        atoms='C:8 F:17',
        thermo=(NASA([200.00, 1000.00],
                     [ 0.00000000E+00,  0.00000000E+00,  0.00000000E+00,
                       0.00000000E+00,  0.00000000E+00,  0.00000000E+00,
                       0.00000000E+00]),
                NASA([1000.00, 3500.00],
                     [ 0.00000000E+00,  0.00000000E+00,  0.00000000E+00,
                       0.00000000E+00,  0.00000000E+00,  0.00000000E+00,
                       0.00000000E+00])))

species(name='HOSO2',
        atoms='H:1 O:3 S:1',
        thermo=(NASA([300.00, 1000.00],
                     [ 1.12806786E+00,  3.48126815E-02, -5.15387717E-05,
                       3.70792993E-08, -1.03925360E-11, -4.59318409E+04,
                       2.00193986E+01]),
                NASA([1000.00, 5000.00],
                     [ 8.96112614E+00,  3.10545893E-03, -1.15859929E-06,
                       2.01266346E-10, -1.32771256E-14, -4.75591741E+04,
                      -1.78721934E+01])))

species(name='CF2CFO',
        atoms='C:2 F:3 O:1',
        thermo=(NASA([300.00, 1000.00],
                     [ 3.51670052E+00,  2.83909566E-02, -2.96396485E-05,
                       1.55861455E-08, -3.35049988E-12, -7.58360522E+04,
                       1.15547826E+01]),
                NASA([1000.00, 5000.00],
                     [ 1.11616689E+01,  5.15937457E-03, -2.17943773E-06,
                       4.10886912E-10, -2.86671254E-14, -7.78829703E+04,
                      -2.75178110E+01])))

species(name='PFOArot',
        atoms='C:8 F:15 H:1 O:2',
        thermo=(NASA([200.00, 1000.00],
                     [ 0.00000000E+00,  0.00000000E+00,  0.00000000E+00,
                       0.00000000E+00,  0.00000000E+00,  0.00000000E+00,
                       0.00000000E+00]),
                NASA([1000.00, 3500.00],
                     [ 0.00000000E+00,  0.00000000E+00,  0.00000000E+00,
                       0.00000000E+00,  0.00000000E+00,  0.00000000E+00,
                       0.00000000E+00])))

species(name='PFlac',
        atoms='C:8 F:14 O:2',
        thermo=(NASA([200.00, 1000.00],
                     [ 0.00000000E+00,  0.00000000E+00,  0.00000000E+00,
                       0.00000000E+00,  0.00000000E+00,  0.00000000E+00,
                       0.00000000E+00]),
                NASA([1000.00, 3500.00],
                     [ 0.00000000E+00,  0.00000000E+00,  0.00000000E+00,
                       0.00000000E+00,  0.00000000E+00,  0.00000000E+00,
                       0.00000000E+00])))

species(name='C7HF15',
        atoms='C:7 F:15 H:1',
        thermo=(NASA([200.00, 1000.00],
                     [ 0.00000000E+00,  0.00000000E+00,  0.00000000E+00,
                       0.00000000E+00,  0.00000000E+00,  0.00000000E+00,
                       0.00000000E+00]),
                NASA([1000.00, 3500.00],
                     [ 0.00000000E+00,  0.00000000E+00,  0.00000000E+00,
                       0.00000000E+00,  0.00000000E+00,  0.00000000E+00,
                       0.00000000E+00])))

species(name='SO2',
        atoms='O:2 S:1',
        thermo=(NASA([200.00, 1000.00],
                     [ 3.67480752E+00,  2.28302107E-03,  8.46893049E-06,
                      -1.36562039E-08,  5.76271873E-12, -3.69455073E+04,
                       7.96866430E+00]),
                NASA([1000.00, 6000.00],
                     [ 5.38423482E+00,  1.67930560E-03, -6.32062944E-07,
                       1.08465348E-10, -6.66890336E-15, -3.76067022E+04,
                      -1.83130517E+00])),
        note='tpis89')

species(name='OH',
        atoms='H:1 O:1',
        thermo=(NASA([200.00, 1000.00],
                     [ 3.99198424E+00, -2.40106655E-03,  4.61664033E-06,
                      -3.87916306E-09,  1.36319502E-12,  3.36889836E+03,
                      -1.03998477E-01]),
                NASA([1000.00, 6000.00],
                     [ 2.83853033E+00,  1.10741289E-03, -2.94000209E-07,
                       4.20698729E-11, -2.42289890E-15,  3.69780808E+03,
                       5.84494652E+00])),
        note='HYDROXYLRADIIU3/03')

species(name='H2O',
        atoms='H:2 O:1',
        thermo=(NASA([200.00, 1000.00],
                     [ 4.19863520E+00, -2.03640170E-03,  6.52034160E-06,
                      -5.48792690E-09,  1.77196800E-12, -3.02937260E+04,
                      -8.49009010E-01]),
                NASA([1000.00, 6000.00],
                     [ 2.67703890E+00,  2.97318160E-03, -7.73768890E-07,
                       9.44335140E-11, -4.26899910E-15, -2.98858940E+04,
                       6.88255000E+00])),
        note='L5/89')

species(name='H',
        atoms='H:1',
        thermo=(NASA([200.00, 1000.00],
                     [ 2.50000000E+00,  0.00000000E+00,  0.00000000E+00,
                       0.00000000E+00,  0.00000000E+00,  2.54736600E+04,
                      -4.46682850E-01]),
                NASA([1000.00, 6000.00],
                     [ 2.50000000E+00,  0.00000000E+00,  0.00000000E+00,
                       0.00000000E+00,  0.00000000E+00,  2.54736600E+04,
                      -4.46682850E-01])),
        note='L6/94')

species(name='H2',
        atoms='H:2',
        thermo=(NASA([200.00, 1000.00],
                     [ 3.50207268E+00,  8.65475654E-05, -2.63683344E-07,
                       3.37306621E-10, -2.92359706E-14, -1.04631279E+03,
                      -4.25875759E+00]),
                NASA([1000.00, 6000.00],
                     [ 2.98711895E+00,  7.36069465E-04, -9.00982609E-08,
                      -7.41224720E-13,  6.58618037E-16, -8.35448659E+02,
                      -1.33268877E+00])),
        note='REFELEMENTT2/17')

species(name='CF',
        atoms='C:1 F:1',
        thermo=(NASA([200.00, 1000.00],
                     [ 3.99598712E+00, -4.62546013E-03,  1.58270762E-05,
                      -1.73528410E-08,  6.45553921E-12,  2.86045210E+04,
                       3.67054970E+00]),
                NASA([1000.00, 6000.00],
                     [ 3.74644062E+00,  8.01632001E-04, -2.95064248E-07,
                       5.03803598E-11, -3.08738254E-15,  2.84554882E+04,
                       3.84191679E+00])),
        note='ATcT/A')

species(name='C2F3',
        atoms='C:2 F:3',
        thermo=(NASA([300.00, 1000.00],
                     [ 3.12904131E+00,  2.24029464E-02, -2.32101183E-05,
                       1.19835375E-08, -2.49247114E-12, -2.90563724E+04,
                       1.25910482E+01]),
                NASA([1000.00, 5000.00],
                     [ 9.17191332E+00,  4.07468873E-03, -1.71937642E-06,
                       3.23927542E-10, -2.25894784E-14, -3.06728888E+04,
                      -1.82937624E+01])))

species(name='CF2CFCF',
        atoms='C:3 F:4',
        thermo=(NASA([300.00, 1000.00],
                     [ 3.15145959E+00,  3.73421538E-02, -3.90465573E-05,
                       1.96899540E-08, -3.84028127E-12, -4.83370286E+04,
                       1.28170244E+01]),
                NASA([1000.00, 5000.00],
                     [ 1.34216177E+01,  5.99602874E-03, -2.54540024E-06,
                       4.81444937E-10, -3.36655956E-14, -5.10528033E+04,
                      -3.95708078E+01])))

species(name='C3F4cyc',
        atoms='C:3 F:4',
        thermo=(NASA([300.00, 1000.00],
                     [ 1.39727455E+00,  4.47793457E-02, -5.26004165E-05,
                       3.09837714E-08, -7.37666566E-12, -5.76924046E+04,
                       1.93828876E+01]),
                NASA([1000.00, 5000.00],
                     [ 1.31097330E+01,  6.29242313E-03, -2.66141330E-06,
                       5.02203028E-10, -3.50610789E-14, -6.06479683E+04,
                      -3.96720242E+01])))

species(name='C4F6cyc',
        atoms='C:4 F:6',
        thermo=(NASA([300.00, 1000.00],
                     [ 1.73508474E+00,  6.45692470E-02, -7.06027207E-05,
                       3.73608708E-08, -7.70220574E-12, -1.25053171E+05,
                       1.84831493E+01]),
                NASA([1000.00, 5000.00],
                     [ 1.93261785E+01,  9.34225467E-03, -3.97106050E-06,
                       7.51749984E-10, -5.25989105E-14, -1.29607019E+05,
                      -7.08155362E+01])))

species(name='FCO2',
        atoms='C:1 F:1 O:2',
        thermo=(NASA([300.00, 1000.00],
                     [ 1.55585266E+00,  1.97857102E-02, -1.97952918E-05,
                       8.96362715E-09, -1.37722582E-12, -4.53590638E+04,
                       1.79035460E+01]),
                NASA([1000.00, 5000.00],
                     [ 7.13878791E+00,  3.08827730E-03, -1.31439356E-06,
                       2.49028162E-10, -1.74338709E-14, -4.68428879E+04,
                      -1.06352583E+01])))

species(name='CO2',
        atoms='C:1 O:2',
        thermo=(NASA([200.00, 1000.00],
                     [ 2.35681300E+00,  8.98412990E-03, -7.12206320E-06,
                       2.45730080E-09, -1.42885480E-13, -4.83719710E+04,
                       9.90090350E+00]),
                NASA([1000.00, 6000.00],
                     [ 4.63651110E+00,  2.74145690E-03, -9.95897590E-07,
                       1.60386660E-10, -9.16198570E-15, -4.90249040E+04,
                      -1.93489550E+00])),
        note='L7/88')

species(name='O',
        atoms='O:1',
        thermo=(NASA([200.00, 1000.00],
                     [ 3.16826710E+00, -3.27931884E-03,  6.64306396E-06,
                      -6.12806624E-09,  2.11265971E-12,  2.91222592E+04,
                       2.05193346E+00]),
                NASA([1000.00, 6000.00],
                     [ 2.54363697E+00, -2.73162486E-05, -4.19029520E-09,
                       4.95481845E-12, -4.79553694E-16,  2.92260120E+04,
                       4.92229457E+00])),
        note='L1/90')

species(name='O2',
        atoms='O:2',
        thermo=(NASA([200.00, 1000.00],
                     [ 3.78245636E+00, -2.99673416E-03,  9.84730201E-06,
                      -9.68129509E-09,  3.24372837E-12, -1.06394356E+03,
                       3.65767573E+00]),
                NASA([1000.00, 6000.00],
                     [ 3.66096065E+00,  6.56365811E-04, -1.41149627E-07,
                       2.05797935E-11, -1.29913436E-15, -1.21597718E+03,
                       3.41536279E+00])),
        note='REFELEMENTRUS89')

species(name='PFOA',
        atoms='C:8 F:15 H:1 O:2',
        thermo=(NASA([200.00, 1000.00],
                     [ 0.00000000E+00,  0.00000000E+00,  0.00000000E+00,
                       0.00000000E+00,  0.00000000E+00,  0.00000000E+00,
                       0.00000000E+00]),
                NASA([1000.00, 3500.00],
                     [ 0.00000000E+00,  0.00000000E+00,  0.00000000E+00,
                       0.00000000E+00,  0.00000000E+00,  0.00000000E+00,
                       0.00000000E+00])))

species(name='AR',
        atoms='Ar:1',
        thermo=(NASA([200.00, 1000.00],
                     [ 2.50000000E+00,  0.00000000E+00,  0.00000000E+00,
                       0.00000000E+00,  0.00000000E+00, -7.45375000E+02,
                       4.37967491E+00]),
                NASA([1000.00, 6000.00],
                     [ 2.50000000E+00,  0.00000000E+00,  0.00000000E+00,
                       0.00000000E+00,  0.00000000E+00, -7.45375000E+02,
                       4.37967491E+00])),
        note='REFELEMENTg5/97')

species(name='FCO3',
        atoms='C:1 F:1 O:3',
        thermo=(NASA([300.00, 1000.00],
                     [ 1.55585266E+00,  1.97857102E-02, -1.97952918E-05,
                       8.96362715E-09, -1.37722582E-12, -4.53590638E+04,
                       1.79035460E+01]),
                NASA([1000.00, 5000.00],
                     [ 7.13878791E+00,  3.08827730E-03, -1.31439356E-06,
                       2.49028162E-10, -1.74338709E-14, -4.68428879E+04,
                      -1.06352583E+01])))

species(name='HO2',
        atoms='H:1 O:2',
        thermo=(NASA([200.00, 1000.00],
                     [ 4.30179807E+00, -4.74912097E-03,  2.11582905E-05,
                      -2.42763914E-08,  9.29225225E-12,  2.64018485E+02,
                       3.71666220E+00]),
                NASA([1000.00, 5000.00],
                     [ 4.17228741E+00,  1.88117627E-03, -3.46277286E-07,
                       1.94657549E-11,  1.76256905E-16,  3.10206839E+01,
                       2.95767672E+00])),
        note='T1/09')

species(name='H2O2',
        atoms='H:2 O:2',
        thermo=(NASA([200.00, 1000.00],
                     [ 4.31515149E+00, -8.47390622E-04,  1.76404323E-05,
                      -2.26762944E-08,  9.08950158E-12, -1.77067437E+04,
                       3.27373319E+00]),
                NASA([1000.00, 6000.00],
                     [ 4.57977305E+00,  4.05326003E-03, -1.29844730E-06,
                       1.98211400E-10, -1.13968792E-14, -1.80071775E+04,
                       6.64970694E-01])),
        note='T8/03')

species(name='N2',
        atoms='N:2',
        thermo=(NASA([200.00, 1000.00],
                     [ 3.53100528E+00, -1.23660988E-04, -5.02999433E-07,