units(length='cm', time='s', quantity='mol', act_energy='kcal/mol')

ideal_gas(name='gas',
          elements="H D T C Ci O Oi N Ne Ar He Si S F Cl Br I X",
          species="""N2                Ne                PFOA(1)
                     O2(2)             H2O(3)            HF(4)
                     C2F4(5)           CO2(6)            C2F6(7)
                     CO(8)             CF4(9)            COF2(10)
                     CHF(11)           H(12)             CH2F(13)
                     CH(14)            CF2(15)           CHF2(16)
                     CF(17)            CH3(18)           F(19)
                     CH2(S)(20)        H2(21)            CH3F(22)
                     CH2F2(23)         FCO(24)           O(25)
                     OH(26)            CFOH(27)          CHFO(28)
                     CHF2O(29)         CHF2OH(30)        CFOOH(31)
                     HO2(32)           CHF2OO(33)        CH3CHF(34)
                     CHF2CH2(35)       CH3CF2(36)        CH3CF(37)
                     CH4(38)           CH2CHF(39)        CH3CHF2(40)
                     CH2FCHF2(41)      CH2FCF(42)        CHFCHF(43)
                     CH2CF2(44)        CHF2CHF(45)       CHF2CHF2(46)
                     CHF2CF2(47)       CHF2CF(48)        CHFCF2(49)
                     CF3(50)           CHF3(51)          FOH(52)
                     OF(53)            H2O2(54)          CH2O(55)
                     HCO(56)           F2(57)            F2O(58)
                     FOOH(59)          CH2(60)           C2H3(61)
                     C2H4(62)          CF3O(79)          CF3-CHF(81)
                     CF3COF(94)        CF3-CF2(225)      C2F5O(238)
                     C3F7O(239)        C3F7(242)         FCO2(243)
                     C(O)OH(248)       C3F6C(O)OH(249)   CF2C(O)OH(250)
                     C7HF13O2(280)     C8HF15O2(304)     C8F14O2(305)
                     C3F6(309)         C6F12(313)        C8F15O2(323)
                     C4F9(324)         C5F11(325)        C5HF8O2(326)
                     C6F13(328)        C7F15(330)        C8H2F15O2(337)
                     C8H2F15O2(338)    [O]OF(346)        C8HF15O4(348)
                     C8HF16O2(350)     C7F14O(351)       C8F14O2(368)
                     C8F14O2(370)      C8F14O2(371)      C8F14O2(372)
                     C8F13O2(379)      C8F16O(397)       O2(413)
                     C8H2F15O4(420)    C4F7O(444)        C2F3O(447)
                     C7HF14O(457)      CH2O2(462)        C8F13O2(508)
                     [O]C([O])F(551)   C8HF15O2(553)     C8HF15O2(584)
                     C7F14(604)        C7F14(605)        C7F14(606)
                     C7F14(607)        C4F8(609)         C7F15O2(630)
                     C6F13O2(634)      C3F7O2(635)       C4F9O2(638)
                     C2F5O2(639)       CF3O2(641)        C5F11O2(644)
                     C7F14O2(655)      C7HF15O2(679)     C7HF14O3(685)
                     FC1OO1(700)       C8HF15O2(705)     C7F14O(740)
                     C7H2F13O2(781)    C8H2F15O2(792)    C8H2F15O2(819)
                     C8H2F15O2(822)    C8H2F15O2(824)    CO3(863)
                     CFO3(930)         C7F14O2(934)      C8H2F15O4(966)
                     C3F7(1106)        C3HF6(1115)       C4HF6O2(1127)
                     C3HF6(1157)       C3HF6(1158)       C3HF6O2(1160)
                     C4HF8(1162)       C5HF8O2(1175)     C5HF8O2(1176)
                     C4HF8O2(1227)     C2HF4O2(1228)     C3HF6O2(1229)
                     C3HF6O2(1236)     C3F7O2(1241)      C4HF8O2(1259)
                     C6F12(1269)       C6F12(1270)       CO3(1354)
                     C6F12O(1363)      C5F10O(1367)      CFO3(1414)
                     C3F6O(1419)       O[C](F)F(1438)    C7F14(1493)
                     C4F8(1516)        C2F4O(1539)       C2F4O2(1609)
                     CFO3(1624)        [O][C]1OO1(1626)  C2HF4O2(1649)
                     C4F7O3(1680)      FC1(F)OO1(1712)   C3HF6(1715)
                     C3HF6O2(1737)     C4F8O(1784)       C3HF6(1912)
                     C3HF5(1919)       C3HF6O2(1920)     C3HF6O2(1921)
                     C7F14(2099)       C7F14(2102)       C6F12(2130)
                     C2F3O3(2178)      C8HF14O4(2182)    C7F14(2302)
                     C7F14(2330)       C6F12(2351)       C8H2F15O2(2392)
                     C8H2F15O4(2448)   C8HF14O4(2560)    C3F6O(2626)
                     CF2O2(2764)       C6F12O2(2777)     C7F14O2(2779)
                     C6F12O2(2808)     C7F14O2(2820)     C6F12O2(2848)
                     C2F4O2(2849)      C2F3O2(2859)      C6F12O(2906)
                     C7HF14O2(2970)    C7HF14O4(3031)    C8H2F15O2(3081)
                     C8H2F15O4(3096)   C8H2F15O4(3135)   C2H2F2O2(3192)
                     C2H2F2O4(3278)    C8H2F15O2(3478)   C8H2F15O4(3517)
                     C5HF10(3569)      C5HF10(3570)      C5HF10(3572)
                     C8HF14O2(3644)    C8H2F15O4(3661)   C8HF14O4(3704)
                     C7HF12O2(3742)    C5HF8O2(3747)     C8HF14O2(3782)
                     C8HF14O2(3783)    C7HF12O4(3802)    C5HF8O4(3808)
                     C8HF14O4(3811)    C7HF12O2(3876)    C5HF8O2(3878)
                     C8HF14O2(3883)    C7HF12O4(3947)    C5HF8O4(3952)
                     C8HF14O4(3955)    C2HF2O3(4014)     C5F10O(4040)
                     C2F4O(4077)       C8HF14O2(4115)    C8H2F15O4(4132)
                     C8HF14O4(4180)    C7HF12O4(4220)    C8HF14O4(4222)
                     C7HF14O2(4223)    C7HF12O2(4247)    C7HF14(4293)
                     C8HF14O2(4321)    C8HF14O2(4322)    C6HF12(4465)
                     C7HF12O2(4487)    C7HF12O2(4489)    C5HF8O4(4507)
                     C7HF12O4(4508)    C6HF12O2(4509)    C6F12O2(4532)
                     C6HF12(4567)      C6HF12O2(4607)    C6HF12(4778)
                     C7HF14(4803)      C6HF12O2(4819)    C5HF10O2(4824)
                     C7HF14O2(4825)    C7HF14O2(4846)    C5HF10(4925)
                     C6HF12(4942)      C5HF10O2(4952)    C6HF12O2(4959)
                     C7F14O(5001)      C7HF14O4(5032)    C5HF10(5033)
                     C5HF10O2(5075)    C8H3F15O3(5268)   C6F12(5393)
                     C7HF12O2(5410)    C7HF12O2(5417)    C7HF12O2(5418)
                     C7HF12O4(5441)    C7HF12O2(5504)    C6HF10O2(5583)
                     C7HF12O2(5595)    C7HF12O4(5623)    C6HF10O2(5645)
                     C6HF10O4(5686)    C5HF10O2(5694)    C5HF10O2(5949)
                     C5HF10O2(5964)    C5HF10O2(6076)    C5F10O(6101)
                     C8H3F15O3(6210)   C7HF12O2(6216)    C5HF10(6534)
                     C5HF10O2(6546)    C5F10(6626)       C8HF14O2(6715)
                     C8HF14O2(6878)    C8HF14O4(6900)    C8HF14O4(6910)
                     C8HF14O2(6960)    C7F12O2(7135)     C8HF14O2(7295)
                     C7F14(7311)       C8HF14O4(7346)    C7HF14(7414)
                     C8HF14O2(7451)    C8HF14O4(7466)    C7HF14O2(7522)
                     C6HF12(7570)      C7HF14(7572)      C6HF12O2(7618)
                     C6F12(7726)       C4F7O3(8358)      C4F7O3(8574)
                     C6F12O(9253)      C8H2F15O2(9542)   C8HF14O2(10167)
                     C8H2F15O4(10193)  C8HF14O4(10223)   C7HF12O4(10323)
                     C8HF14O2(10403)   C8HF14O2(10404)   C7HF12O2(10452)
                     C7HF12O2(10496)   C8HF14O2(10505)   C8HF14O4(10527)
                     C7HF12O4(10542)   C7HF12O2(10613)   C7HF12O2(10752)
                     C7HF12O2(10977)   C6HF12(11117)     C6HF12O2(11164)
                     C6HF12O2(11180)   C6F12O(11221)     C8F13O2(11464)
                     C8F13O2(11512)    C8F13O2(11541)    C8F13O2(11582)
                     C8F13O2(11584)    C8F13O4(11638)    C8F13O2(11730)
                     C8F13O2(11732)    C8F13O2(11760)    C8F13O2(11761)
                     C8F13O4(11806)    C2F3O(11871)      C7HF14O2(12037)
                     C7F14(12142)      C8H2F14O3(12276)  C8HF14O4(12895)
                     C8F13O2(13083)    C7HF12O2(13554)   C7HF12O4(13657)
                     C7HF12O2(13810)   C2F3O3(14033)     C2F3O3(14056)
                     C8F13O2(14247)    C8F13O2(14289)    C8F13O2(14313)
                     C8F13O4(14324)    C8F13O4(14376)    C8F13O2(14442)""",
          reactions='all',
          transport='Mix',
          initial_state=state(temperature=300.0, pressure=OneAtm))

#-------------------------------------------------------------------------------
# Element data
#-------------------------------------------------------------------------------

element(symbol='Ci', atomic_mass=13.003)
element(symbol='D', atomic_mass=2.014)
element(symbol='Oi', atomic_mass=17.999)
element(symbol='T', atomic_mass=3.016)
element(symbol='X', atomic_mass=195.083)
#-------------------------------------------------------------------------------
# Species data
#-------------------------------------------------------------------------------

species(name='N2',
        atoms='N:2',
        thermo=(NASA([200.00, 1000.00],
                     [ 3.53101000E+00, -1.23661000E-04, -5.02999000E-07,
                       2.43531000E-09, -1.40881000E-12, -1.04698000E+03,
                       2.96747000E+00]),
                NASA([1000.00, 6000.00],
                     [ 2.95258000E+00,  1.39690000E-03, -4.92632000E-07,
                       7.86010000E-11, -4.60755000E-15, -9.23949000E+02,
                       5.87189000E+00])),
        transport=gas_transport(geom='linear',
                                diam=3.621,
                                well_depth=97.53,
                                polar=1.76,
                                rot_relax=4.0))

species(name='Ne',
        atoms='Ne:1',
        thermo=(NASA([200.00, 1000.00],
                     [ 2.50000000E+00,  0.00000000E+00,  0.00000000E+00,
                       0.00000000E+00,  0.00000000E+00, -7.45375000E+02,
                       3.35532000E+00]),
                NASA([1000.00, 6000.00],
                     [ 2.50000000E+00,  0.00000000E+00,  0.00000000E+00,
                       0.00000000E+00,  0.00000000E+00, -7.45375000E+02,
                       3.35532000E+00])),
        transport=gas_transport(geom='atom',
                                diam=3.758,
                                well_depth=148.6))

species(name='PFOA(1)',
        atoms='C:8 F:15 H:1 O:2',
        thermo=(NASA([200.00, 1000.00],
                     [ 3.29110517E+00,  1.77967023E-01, -1.91157976E-04,
                       9.59300069E-08, -1.81585653E-11, -4.29840784E+05,
                       1.01142128E+01]),
                NASA([1000.00, 2500.00],
                     [ 3.67949757E+01,  6.06294400E-02, -4.01684500E-05,
                       1.19482222E-08, -1.33259389E-12, -4.37375453E+05,
                      -1.55692070E+02])),
        transport=gas_transport(geom='nonlinear',
                                diam=6.494,
                                well_depth=578.577))

species(name='O2(2)',
        atoms='O:2',
        thermo=(NASA([200.00, 1000.00],
                     [ 3.78245636E+00, -2.99673416E-03,  9.84730201E-06,
                      -9.68129509E-09,  3.24372837E-12, -1.06394356E+03,
                       3.65767573E+00]),
                NASA([1000.00, 6000.00],
                     [ 3.66096065E+00,  6.56365811E-04, -1.41149627E-07,
                       2.05797935E-11, -1.29913436E-15, -1.21597718E+03,
                       3.41536279E+00])),
        transport=gas_transport(geom='linear',
                                diam=3.458,
                                well_depth=107.4,
                                polar=1.6,
                                rot_relax=3.8))

species(name='H2O(3)',
        atoms='H:2 O:1',
        thermo=(NASA([200.00, 1000.00],
                     [ 4.19863520E+00, -2.03640170E-03,  6.52034160E-06,
                      -5.48792690E-09,  1.77196800E-12, -3.02937260E+04,
                      -8.49009010E-01]),
                NASA([1000.00, 6000.00],
                     [ 2.67703890E+00,  2.97318160E-03, -7.73768890E-07,
                       9.44335140E-11, -4.26899910E-15, -2.98858940E+04,
                       6.88255000E+00])),
        transport=gas_transport(geom='nonlinear',
                                diam=2.605,
                                well_depth=572.402,
                                dipole=1.844,
                                rot_relax=4.0))

species(name='HF(4)',
        atoms='F:1 H:1',
        thermo=(NASA([200.00, 1000.00],
                     [ 3.48137108E+00,  2.12245717E-04, -6.86359044E-07,
                       8.56185857E-10, -2.34581508E-13, -3.38607305E+04,
                       1.02579990E+00]),
                NASA([1000.00, 6000.00],
                     [ 2.92491143E+00,  8.50523032E-04, -1.58179777E-07,
                       1.17507204E-11, -1.43309132E-16, -3.36352481E+04,
                       4.19018883E+00])),
        transport=gas_transport(geom='linear',
                                diam=3.148,
                                well_depth=330.001,
                                dipole=1.92,
                                polar=2.46,
                                rot_relax=1.0))

species(name='C2F4(5)',
        atoms='C:2 F:4',
        thermo=(NASA([200.00, 1000.00],
                     [ 1.99308667E+00,  3.84734406E-02, -5.32322754E-05,
                       3.92122720E-08, -1.19302747E-11, -8.30021485E+04,
                       1.53134111E+01]),
                NASA([1000.00, 6000.00],
                     [ 1.14178412E+01,  4.59161071E-03, -1.77520928E-06,
                       3.00598731E-10, -1.85921260E-14, -8.52927617E+04,
                      -3.16445526E+01])),
        transport=gas_transport(geom='nonlinear',
                                diam=4.647,
                                well_depth=254.2))

species(name='CO2(6)',
        atoms='C:1 O:2',
        thermo=(NASA([200.00, 1000.00],
                     [ 2.35681300E+00,  8.98412990E-03, -7.12206320E-06,
                       2.45730080E-09, -1.42885480E-13, -4.83719710E+04,
                       9.90090350E+00]),
                NASA([1000.00, 6000.00],
                     [ 4.63651110E+00,  2.74145690E-03, -9.95897590E-07,
                       1.60386660E-10, -9.16198570E-15, -4.90249040E+04,
                      -1.93489550E+00])),
        transport=gas_transport(geom='linear',
                                diam=3.763,
                                well_depth=244.001,
                                polar=2.65,
                                rot_relax=2.1))

species(name='C2F6(7)',
        atoms='C:2 F:6',
        thermo=(NASA([200.00, 1000.00],
                     [ 1.56503771E+00,  5.10909623E-02, -5.07167534E-05,
                       1.88993955E-08, -7.73770882E-13, -1.64755649E+05,
                       1.89556430E+01]),
                NASA([1000.00, 6000.00],
                     [ 1.70284831E+01,  4.64174937E-03, -1.92155485E-06,
                       3.37538839E-10, -2.13452416E-14, -1.68769576E+05,
                      -5.98112608E+01])),
        transport=gas_transport(geom='nonlinear',
                                diam=4.969,
                                well_depth=231.799))

species(name='CO(8)',
        atoms='C:1 O:1',
        thermo=(NASA([200.00, 1000.00],
                     [ 3.57953350E+00, -6.10353690E-04,  1.01681430E-06,
                       9.07005860E-10, -9.04424490E-13, -1.43440860E+04,
                       3.50840930E+00]),
                NASA([1000.00, 6000.00],
                     [ 3.04848590E+00,  1.35172810E-03, -4.85794050E-07,
                       7.88536440E-11, -4.69807460E-15, -1.42661170E+04,
                       6.01709770E+00])),
        transport=gas_transport(geom='linear',
                                diam=3.65,
                                well_depth=98.1,
                                polar=1.95,
                                rot_relax=1.8))

species(name='CF4(9)',
        atoms='C:1 F:4',
        thermo=(NASA([200.00, 1000.00],
                     [ 1.05119594E+00,  2.78318369E-02, -2.46683439E-05,
                       6.75882532E-09,  9.14850873E-13, -1.13574198E+05,
                       1.81936795E+01]),
                NASA([1000.00, 6000.00],
                     [ 9.47336526E+00,  3.59407743E-03, -1.40334012E-06,
                       2.39113889E-10, -1.48513407E-14, -1.15816621E+05,
                      -2.49736848E+01])),
        transport=gas_transport(geom='nonlinear',
                                diam=4.662,
                                well_depth=134.0))

species(name='COF2(10)',
        atoms='C:1 F:2 O:1',
        thermo=(NASA([200.00, 1000.00],
                     [ 2.12979433E+00,  1.41019782E-02, -5.94383395E-06,
                      -5.30542094E-09,  3.97366263E-12, -7.41637142E+04,
                       1.51109046E+01]),
                NASA([1000.00, 6000.00],
                     [ 6.81631709E+00,  3.16473302E-03, -1.21776278E-06,
                       2.05582278E-10, -1.26893138E-14, -7.55374518E+04,
                      -9.52865117E+00])),
        transport=gas_transport(geom='nonlinear',
                                diam=4.906,
                                well_depth=350.5))

species(name='CHF(11)',
        atoms='C:1 F:1 H:1',
        thermo=(NASA([200.00, 1000.00],
                     [ 4.44899439E+00, -5.68990301E-03,  2.16897836E-05,
                      -2.28311208E-08,  8.17372154E-12,  1.66128322E+04,
                       2.40536115E+00]),
                NASA([1000.00, 3000.00],
                     [ 2.86475765E+00,  4.88458805E-03, -2.52230930E-06,
                       6.24855712E-10, -6.04163955E-14,  1.67633545E+04,
                       9.12031189E+00])),
        transport=gas_transport(geom='nonlinear',
                                diam=4.123,
                                well_depth=262.0,
                                dipole=1.8))

species(name='H(12)',
        atoms='H:1',
        thermo=(NASA([200.00, 6000.00],
                     [ 2.50000000E+00,  0.00000000E+00,  0.00000000E+00,
                       0.00000000E+00,  0.00000000E+00,  2.54736600E+04,
                      -4.46682850E-01]),
                NASA([6000.00, 6000.00],
                     [ 2.50000000E+00,  0.00000000E+00,  0.00000000E+00,
                       0.00000000E+00,  0.00000000E+00,  2.54736600E+04,
                      -4.46682850E-01])),
        transport=gas_transport(geom='atom',
                                diam=2.05,
                                well_depth=145.0))

species(name='CH2F(13)',
        atoms='C:1 F:1 H:2',
        thermo=(NASA([200.00, 1000.00],
                     [ 3.77938639E+00, -3.97612680E-04,  1.87718416E-05,
                      -2.40689064E-08,  9.55051041E-12, -4.99331979E+03,
                       6.23834236E+00]),
                NASA([1000.00, 3000.00],
                     [ 3.20982001E+00,  6.97057987E-03, -3.20030736E-06,
                       7.19313063E-10, -6.41861685E-14, -5.05791555E+03,
                       7.93158384E+00])),
        transport=gas_transport(geom='nonlinear',
                                diam=4.123,
                                well_depth=262.0,
                                dipole=1.8))

species(name='CH(14)',
        atoms='C:1 H:1',
        thermo=(NASA([200.00, 1000.00],
                     [ 3.48976000E+00,  3.24322000E-04, -1.68998000E-06,
                       3.16284000E-09, -1.40618000E-12,  7.06126000E+04,
                       2.08428000E+00]),
                NASA([1000.00, 6000.00],
                     [ 2.52094000E+00,  1.76536000E-03, -4.61477000E-07,
                       5.92897000E-11, -3.34745000E-15,  7.09468000E+04,
                       7.40518000E+00])),
        transport=gas_transport(geom='linear',
                                diam=2.75,
                                well_depth=80.0))

species(name='CF2(15)',
        atoms='C:1 F:2',
        thermo=(NASA([200.00, 1000.00],
                     [ 3.56435487E+00,  1.23021056E-03,  1.39909866E-05,
                      -2.13708286E-08,  9.10710807E-12, -2.44587979E+04,
                       7.83907808E+00]),
                NASA([1000.00, 6000.00],
                     [ 5.35787718E+00,  1.80622418E-03, -7.80465045E-07,
                       1.47642691E-10, -9.44754424E-15, -2.51728166E+04,
                      -2.63410779E+00])),
        transport=gas_transport(geom='nonlinear',
                                diam=3.977,
                                well_depth=108.0))

species(name='CHF2(16)',
        atoms='C:1 F:2 H:1',
        thermo=(NASA([200.00, 1000.00],
                     [ 4.12220872E+00, -2.33706659E-03,  2.99282606E-05,
                      -3.88422961E-08,  1.55352879E-11, -3.00530523E+04,
                       7.22245467E+00]),
                NASA([1000.00, 6000.00],
                     [ 5.52321120E+00,  4.21970092E-03, -1.58435294E-06,
                       2.63969157E-10, -1.61337618E-14, -3.08945160E+04,
                      -2.40335469E+00])),
        transport=gas_transport(geom='nonlinear',
                                diam=4.123,
                                well_depth=262.0,
                                dipole=1.8))

species(name='CF(17)',
        atoms='C:1 F:1',
        thermo=(NASA([100.00, 1000.00],
                     [ 3.84369209E+00, -3.50188886E-03,  1.29819685E-05,
                      -1.43766790E-08,  5.35553536E-12,  2.85946414E+04,
                       4.30541730E+00]),
                NASA([1000.00, 6000.00],
                     [ 3.76688366E+00,  7.72455711E-04, -2.81687813E-07,
                       4.79035640E-11, -2.92695193E-15,  2.84210431E+04,
                       3.72489614E+00])),
        transport=gas_transport(geom='linear',
                                diam=3.635,
                                well_depth=94.2))

species(name='CH3(18)',
        atoms='C:1 H:3',
        thermo=(NASA([200.00, 1000.00],
                     [ 3.65718000E+00,  2.12660000E-03,  5.45839000E-06,
                      -6.61810000E-09,  2.46571000E-12,  1.64227000E+04,
                       1.67354000E+00]),
                NASA([1000.00, 6000.00],
                     [ 2.97812000E+00,  5.79785000E-03, -1.97558000E-06,
                       3.07298000E-10, -1.79174000E-14,  1.65095000E+04,
                       4.72248000E+00])),
        transport=gas_transport(geom='nonlinear',
                                diam=3.8,
                                well_depth=144.001))

species(name='F(19)',
        atoms='F:1',
        thermo=(NASA([200.00, 1000.00],
                     [ 2.41967430E+00,  2.93929090E-03, -8.92122280E-06,
                       9.91185370E-09, -3.79471520E-12,  8.75732200E+03,
                       4.74689870E+00]),
                NASA([1000.00, 6000.00],
                     [ 2.67163390E+00, -1.74618530E-04,  6.90665040E-08,
                      -1.19534780E-11,  7.52367390E-16,  8.78741230E+03,
                       3.98425680E+00])),
        transport=gas_transport(geom='atom',
                                diam=2.75,
                                well_depth=80.0))

species(name='CH2(S)(20)',
        atoms='C:1 H:2',
        thermo=(NASA([100.00, 1442.34],
                     [ 4.10264544E+00, -1.44070116E-03,  5.45073742E-06,
                      -3.58006809E-09,  7.56207891E-13,  5.04005784E+04,
                      -4.11772114E-01]),
                NASA([1442.34, 5000.00],
                     [ 2.62643748E+00,  3.94768321E-03, -1.49926936E-06,
                       2.54545262E-10, -1.62960598E-14,  5.06917716E+04,
                       6.78400214E+00])),
        transport=gas_transport(geom='nonlinear',
                                diam=3.8,
                                well_depth=144.001))

species(name='H2(21)',
        atoms='H:2',
        thermo=(NASA([200.00, 1000.00],
                     [ 2.34433112E+00,  7.98052075E-03, -1.94781510E-05,
                       2.01572094E-08, -7.37611761E-12, -9.17935173E+02,
                       6.83010238E-01]),
                NASA([1000.00, 6000.00],
                     [ 2.93286575E+00,  8.26608026E-04, -1.46402364E-07,
                       1.54100414E-11, -6.88804800E-16, -8.13065581E+02,
                      -1.02432865E+00])),
        transport=gas_transport(geom='linear',
                                diam=2.92,
                                well_depth=38.0,
                                polar=0.79,
                                rot_relax=280.0))

species(name='CH3F(22)',
        atoms='C:1 F:1 H:3',
        thermo=(NASA([200.00, 1000.00],
                     [ 5.13884995E+00, -1.52225700E-02,  6.07163912E-05,
                      -6.52865359E-08,  2.38092602E-11, -2.96183839E+04,
                      -1.55798184E-01]),
                NASA([1000.00, 3000.00],
                     [ 1.09543626E+00,  1.30467027E-02, -6.34689480E-06,
                       1.49984057E-09, -1.39689327E-13, -2.92619821E+04,
                       1.67625962E+01])),
        transport=gas_transport(geom='nonlinear',
                                diam=4.123,
                                well_depth=262.0,
                                dipole=1.8))

species(name='CH2F2(23)',
        atoms='C:1 F:2 H:2',
        thermo=(NASA([200.00, 1000.00],
                     [ 4.25023157E+00, -6.84861262E-03,  4.85583334E-05,
                      -5.83442752E-08,  2.24503933E-11, -5.57351602E+04,
                       5.76716418E+00]),
                NASA([1000.00, 6000.00],
                     [ 5.06948195E+00,  7.23193135E-03, -2.64021025E-06,
                       4.30854708E-10, -2.59873096E-14, -5.67270077E+04,
                      -2.34590394E+00])),
        transport=gas_transport(geom='nonlinear',
                                diam=4.123,
                                well_depth=262.0,
                                dipole=1.8))

species(name='FCO(24)',
        atoms='C:1 F:1 O:1',
        thermo=(NASA([200.00, 1000.00],
                     [ 3.37992233E+00,  4.19050548E-03,  2.12353533E-06,
                      -6.20586665E-09,  2.85352218E-12, -2.24063200E+04,
                       9.39466699E+00]),
                NASA([1000.00, 6000.00],
                     [ 5.01565891E+00,  1.95763376E-03, -7.49685297E-07,
                       1.25610155E-10, -7.59885072E-15, -2.29785255E+04,
                       3.69669039E-01])),
        transport=gas_transport(geom='nonlinear',
                                diam=4.0,
                                well_depth=860.0))

species(name='O(25)',
        atoms='O:1',
        thermo=(NASA([200.00, 1000.00],
                     [ 3.16826710E+00, -3.27931884E-03,  6.64306396E-06,
                      -6.12806624E-09,  2.11265971E-12,  2.91222592E+04,
                       2.05193346E+00]),
                NASA([1000.00, 6000.00],
                     [ 2.54363697E+00, -2.73162486E-05, -4.19029520E-09,
                       4.95481845E-12, -4.79553694E-16,  2.92260120E+04,
                       4.92229457E+00])),
        transport=gas_transport(geom='atom',
                                diam=2.75,
                                well_depth=80.0))

species(name='OH(26)',
        atoms='H:1 O:1',
        thermo=(NASA([200.00, 1000.00],
                     [ 3.99198424E+00, -2.40106655E-03,  4.61664033E-06,
                      -3.87916306E-09,  1.36319502E-12,  3.36889836E+03,
                      -1.03998477E-01]),
                NASA([1000.00, 6000.00],
                     [ 2.83853033E+00,  1.10741289E-03, -2.94000209E-07,
                       4.20698729E-11, -2.42289890E-15,  3.69780808E+03,
                       5.84494652E+00])),
        transport=gas_transport(geom='linear',
                                diam=2.75,
                                well_depth=80.0))

species(name='CFOH(27)',
        atoms='C:1 F:1 H:1 O:1',
        thermo=(NASA([100.00, 962.70],
                     [ 3.77260774E+00, -1.48115629E-03,  3.22646012E-05,
                      -4.07731051E-08,  1.52806272E-11,  3.23899413E+02,
                       5.79661363E+00]),
                NASA([962.70, 5000.00],
                     [ 6.60184113E+00,  3.35541779E-03, -1.12373552E-06,
                       2.50986621E-10, -2.18941167E-14, -9.89702996E+02,
                      -1.17385198E+01])),
        transport=gas_transport(geom='nonlinear',
                                diam=5.118,
                                well_depth=237.1))

species(name='CHFO(28)',
        atoms='C:1 F:1 H:1 O:1',
        thermo=(NASA([200.00, 1000.00],
                     [ 3.75304076E+00, -1.54852861E-03,  2.57217119E-05,
                      -3.26531112E-08,  1.28244723E-11, -4.72465247E+04,
                       7.84452039E+00]),
                NASA([1000.00, 3000.00],
                     [ 3.35899933E+00,  7.98029314E-03, -4.19403281E-06,
                       1.05585946E-09, -1.03534032E-13, -4.74866206E+04,
                       7.99119076E+00])),
        transport=gas_transport(geom='nonlinear',
                                diam=4.906,
                                well_depth=350.5))

species(name='CHF2O(29)',
        atoms='C:1 F:2 H:1 O:1',
        thermo=(NASA([200.00, 1000.00],
                     [ 2.47349156E+00,  1.17065615E-02,  1.04337280E-05,
                      -2.54481526E-08,  1.18740003E-11, -5.03665081E+04,
                       1.51612275E+01]),
                NASA([1000.00, 3000.00],
                     [ 5.49061190E+00,  9.58783345E-03, -5.27510353E-06,
                       1.37467204E-09, -1.38385117E-13, -5.13912163E+04,
                      -1.64500285E+00])),
        transport=gas_transport(geom='nonlinear',
                                diam=4.908,