units(length='cm', time='s', quantity='mol', act_energy='kcal/mol')

ideal_gas(name='gas',
          elements="H D T C Ci O Oi N Ne Ar He Si S F Cl Br I X",
          species="""N2                Ne                CH3F(1)
                     O2(2)             H(3)              O(4)
                     OH(5)             H2(6)             H2O(7)
                     HO2(10)           H2O2(11)          CO(12)
                     CO2(13)           HCO(14)           CH(16)
                     CH2(T)(17)        CH2O(19)          F(37)
                     HF(38)            CH2F(45)          CHFO(46)
                     CFO(50)           CFOOH(127)        C1OO1(148)
                     O2(149)           [O]C[O](151)      CHO2(154)
                     CHO2(157)         [O]OCF(198)       CO3(202)
                     CHO3(238)         CFO3(398)         [O]C1(F)OO1(655)
                     CO3(658)          [O][C]1OO1(659)   O[C]1OO1(661)""",
          reactions='all',
          transport='Mix',
          initial_state=state(temperature=300.0, pressure=OneAtm))

#-------------------------------------------------------------------------------
# Element data
#-------------------------------------------------------------------------------

element(symbol='Ci', atomic_mass=13.003)
element(symbol='D', atomic_mass=2.014)
element(symbol='Oi', atomic_mass=17.999)
element(symbol='T', atomic_mass=3.016)
element(symbol='X', atomic_mass=195.083)
#-------------------------------------------------------------------------------
# Species data
#-------------------------------------------------------------------------------

species(name='N2',
        atoms='N:2',
        thermo=(NASA([200.00, 1000.00],
                     [ 3.53101000E+00, -1.23661000E-04, -5.02999000E-07,
                       2.43531000E-09, -1.40881000E-12, -1.04698000E+03,
                       2.96747000E+00]),
                NASA([1000.00, 6000.00],
                     [ 2.95258000E+00,  1.39690000E-03, -4.92632000E-07,
                       7.86010000E-11, -4.60755000E-15, -9.23949000E+02,
                       5.87189000E+00])),
        transport=gas_transport(geom='linear',
                                diam=3.621,
                                well_depth=97.53,
                                polar=1.76,
                                rot_relax=4.0))

species(name='Ne',
        atoms='Ne:1',
        thermo=(NASA([200.00, 1000.00],
                     [ 2.50000000E+00,  0.00000000E+00,  0.00000000E+00,
                       0.00000000E+00,  0.00000000E+00, -7.45375000E+02,
                       3.35532000E+00]),
                NASA([1000.00, 6000.00],
                     [ 2.50000000E+00,  0.00000000E+00,  0.00000000E+00,
                       0.00000000E+00,  0.00000000E+00, -7.45375000E+02,
                       3.35532000E+00])),
        transport=gas_transport(geom='atom',
                                diam=3.758,
                                well_depth=148.6))

species(name='CH3F(1)',
        atoms='C:1 F:1 H:3',
        thermo=(NASA([200.00, 1000.00],
                     [ 5.13884995E+00, -1.52225700E-02,  6.07163912E-05,
                      -6.52865359E-08,  2.38092602E-11, -2.96183839E+04,
                      -1.55798184E-01]),
                NASA([1000.00, 3000.00],
                     [ 1.09543626E+00,  1.30467027E-02, -6.34689480E-06,
                       1.49984057E-09, -1.39689327E-13, -2.92619821E+04,
                       1.67625962E+01])),
        transport=gas_transport(geom='nonlinear',
                                diam=4.123,
                                well_depth=262.0,
                                dipole=1.8))

species(name='O2(2)',
        atoms='O:2',
        thermo=(NASA([100.00, 1074.55],
                     [ 3.53732243E+00, -1.21571647E-03,  5.31620254E-06,
                      -4.89446434E-09,  1.45846258E-12, -1.03858849E+03,
                       4.68368183E+00]),
                NASA([1074.55, 5000.00],
                     [ 3.15382081E+00,  1.67804371E-03, -7.69974236E-07,
                       1.51275462E-10, -1.08782414E-14, -1.04081728E+03,
                       6.16755832E+00])),
        transport=gas_transport(geom='linear',
                                diam=3.458,
                                well_depth=107.4,
                                polar=1.6,
                                rot_relax=3.8))

species(name='H(3)',
        atoms='H:1',
        thermo=(NASA([100.00, 4879.80],
                     [ 2.50000000E+00, -3.01680531E-12,  3.74582141E-15,
                      -1.50856878E-18,  1.86626471E-22,  2.54742178E+04,
                      -4.44972899E-01]),
                NASA([4879.80, 5000.00],
                     [ 4.28461071E+00, -1.45494649E-03,  4.44804306E-07,
                      -6.04359642E-11,  3.07921551E-15,  2.37230923E+04,
                      -1.18931307E+01])),
        transport=gas_transport(geom='atom',
                                diam=2.05,
                                well_depth=145.0))

species(name='O(4)',
        atoms='O:1',
        thermo=(NASA([100.00, 4879.80],
                     [ 2.50000000E+00, -3.01680531E-12,  3.74582141E-15,
                      -1.50856878E-18,  1.86626471E-22,  2.92302441E+04,
                       5.12616427E+00]),
                NASA([4879.80, 5000.00],
                     [ 4.28461071E+00, -1.45494649E-03,  4.44804306E-07,
                      -6.04359642E-11,  3.07921551E-15,  2.74791187E+04,
                      -6.32199355E+00])),
        transport=gas_transport(geom='atom',
                                diam=2.75,
                                well_depth=80.0))

species(name='OH(5)',
        atoms='H:1 O:1',
        thermo=(NASA([100.00, 1145.76],
                     [ 3.51456839E+00,  2.92734292E-05, -5.32150598E-07,
                       1.01947521E-09, -3.85939405E-13,  3.41425418E+03,
                       2.10434756E+00]),
                NASA([1145.76, 5000.00],
                     [ 3.07193724E+00,  6.04019839E-04, -1.39805930E-08,
                      -2.13440813E-11,  2.48061367E-15,  3.57938792E+03,
                       4.57801469E+00])),
        transport=gas_transport(geom='linear',
                                diam=2.75,
                                well_depth=80.0))

species(name='H2(6)',
        atoms='H:2',
        thermo=(NASA([100.00, 1959.07],
                     [ 3.43536393E+00,  2.12711953E-04, -2.78628671E-07,
                       3.40270013E-10, -7.76039045E-14, -1.03135983E+03,
                      -3.90841661E+00]),
                NASA([1959.07, 5000.00],
                     [ 2.78818509E+00,  5.87615921E-04,  1.59022130E-07,
                      -5.52762536E-11,  4.34328120E-15, -5.96155632E+02,
                       1.12618494E-01])),
        transport=gas_transport(geom='linear',
                                diam=2.92,
                                well_depth=38.0,
                                polar=0.79,
                                rot_relax=280.0))

species(name='H2O(7)',
        atoms='H:2 O:1',
        thermo=(NASA([100.00, 1130.23],
                     [ 4.05763524E+00, -7.87929225E-04,  2.90875322E-06,
                      -1.47516271E-09,  2.12832915E-13, -3.02815866E+04,
                      -3.11361934E-01]),
                NASA([1130.23, 5000.00],
                     [ 2.84325454E+00,  2.75107882E-03, -7.81027793E-07,
                       1.07242789E-10, -5.79385325E-15, -2.99586146E+04,
                       5.91039666E+00])),
        transport=gas_transport(geom='nonlinear',
                                diam=2.605,
                                well_depth=572.402,
                                dipole=1.844,
                                rot_relax=4.0))

species(name='HO2(10)',
        atoms='H:1 O:2',
        thermo=(NASA([200.00, 1000.00],
                     [ 4.30180000E+00, -4.74912000E-03,  2.11583000E-05,
                      -2.42764000E-08,  9.29225000E-12,  2.64018000E+02,
                       3.71666000E+00]),
                NASA([1000.00, 5000.00],
                     [ 4.17229000E+00,  1.88118000E-03, -3.46277000E-07,
                       1.94658000E-11,  1.76257000E-16,  3.10207000E+01,
                       2.95768000E+00])),
        transport=gas_transport(geom='nonlinear',
                                diam=3.458,
                                well_depth=107.4,
                                rot_relax=1.0))

species(name='H2O2(11)',
        atoms='H:2 O:2',
        thermo=(NASA([200.00, 1000.00],
                     [ 4.31515000E+00, -8.47391000E-04,  1.76404000E-05,
                      -2.26763000E-08,  9.08950000E-12, -1.77067000E+04,
                       3.27373000E+00]),
                NASA([1000.00, 6000.00],
                     [ 4.57977000E+00,  4.05326000E-03, -1.29845000E-06,
                       1.98211000E-10, -1.13969000E-14, -1.80072000E+04,
                       6.64971000E-01])),
        transport=gas_transport(geom='nonlinear',
                                diam=3.458,
                                well_depth=107.4,
                                rot_relax=3.8))

species(name='CO(12)',
        atoms='C:1 O:1',
        thermo=(NASA([100.00, 1571.64],
                     [ 3.56838006E+00, -8.52126340E-04,  2.48917989E-06,
                      -1.56331226E-09,  3.13595852E-13, -1.42842549E+04,
                       3.57912151E+00]),
                NASA([1571.64, 5000.00],
                     [ 2.91306239E+00,  1.64658456E-03, -6.88618210E-07,
                       1.21038081E-10, -7.84023563E-15, -1.41808823E+04,
                       6.71048256E+00])),
        transport=gas_transport(geom='linear',
                                diam=3.65,
                                well_depth=98.1,
                                polar=1.95,
                                rot_relax=1.8))

species(name='CO2(13)',
        atoms='C:1 O:2',
        thermo=(NASA([200.00, 1000.00],
                     [ 2.35681000E+00,  8.98413000E-03, -7.12206000E-06,
                       2.45730000E-09, -1.42885000E-13, -4.83720000E+04,
                       9.90090000E+00]),
                NASA([1000.00, 6000.00],
                     [ 4.63651000E+00,  2.74146000E-03, -9.95898000E-07,
                       1.60387000E-10, -9.16199000E-15, -4.90249000E+04,
                      -1.93490000E+00])),
        transport=gas_transport(geom='linear',
                                diam=3.763,
                                well_depth=244.001,
                                polar=2.65,
                                rot_relax=2.1))

species(name='HCO(14)',
        atoms='C:1 H:1 O:1',
        thermo=(NASA([200.00, 1000.00],
                     [ 4.23755000E+00, -3.32075000E-03,  1.40030000E-05,
                      -1.34240000E-08,  4.37416000E-12,  3.87241000E+03,
                       3.30835000E+00]),
                NASA([1000.00, 6000.00],
                     [ 3.92002000E+00,  2.52279000E-03, -6.71004000E-07,
                       1.05616000E-10, -7.43798000E-15,  3.65343000E+03,
                       3.58077000E+00])),
        transport=gas_transport(geom='nonlinear',
                                diam=3.59,
                                well_depth=498.002))

species(name='CH(16)',
        atoms='C:1 H:1',
        thermo=(NASA([200.00, 1000.00],
                     [ 3.48976000E+00,  3.24322000E-04, -1.68998000E-06,
                       3.16284000E-09, -1.40618000E-12,  7.06126000E+04,
                       2.08428000E+00]),
                NASA([1000.00, 6000.00],
                     [ 2.52094000E+00,  1.76536000E-03, -4.61477000E-07,
                       5.92897000E-11, -3.34745000E-15,  7.09468000E+04,
                       7.40518000E+00])),
        transport=gas_transport(geom='linear',
                                diam=2.75,
                                well_depth=80.0))

species(name='CH2(T)(17)',
        atoms='C:1 H:2',
        thermo=(NASA([100.00, 1104.61],
                     [ 4.01192385E+00, -1.54978476E-04,  3.26297763E-06,
                      -2.40421771E-09,  5.69496611E-13,  4.58676802E+04,
                       5.33200599E-01]),
                NASA([1104.61, 5000.00],
                     [ 3.14983376E+00,  2.96674278E-03, -9.76055956E-07,
                       1.54115307E-10, -9.50338343E-15,  4.60581391E+04,
                       4.77807727E+00])),
        transport=gas_transport(geom='nonlinear',
                                diam=3.8,
                                well_depth=144.001))

species(name='CH2O(19)',
        atoms='C:1 H:2 O:1',
        thermo=(NASA([200.00, 1000.00],
                     [ 4.79372000E+00, -9.90833000E-03,  3.73220000E-05,
                      -3.79285000E-08,  1.31773000E-11, -1.43792000E+04,
                       6.02798000E-01]),
                NASA([1000.00, 6000.00],
                     [ 3.16953000E+00,  6.19321000E-03, -2.25056000E-06,
                       3.65976000E-10, -2.20149000E-14, -1.45487000E+04,
                       6.04208000E+00])),
        transport=gas_transport(geom='nonlinear',
                                diam=3.59,
                                well_depth=498.002,
                                rot_relax=2.0))

species(name='F(37)',
        atoms='F:1',
        thermo=(NASA([200.00, 1000.00],
                     [ 2.41932420E+00,  2.93848449E-03, -8.91441625E-06,
                       9.90063549E-09, -3.78936967E-12,  8.99832590E+03,
                       4.73388583E+00]),
                NASA([1000.00, 3000.00],
                     [ 2.73547309E+00, -3.18376264E-04,  1.80404747E-07,
                      -4.76650983E-11,  4.82178946E-15,  9.00723724E+03,
                       3.62700929E+00])),
        transport=gas_transport(geom='atom',
                                diam=2.75,
                                well_depth=80.0))

species(name='HF(38)',
        atoms='F:1 H:1',
        thermo=(NASA([200.00, 1000.00],
                     [ 3.47861056E+00,  2.30210129E-04, -7.26207054E-07,
                       8.90789862E-10, -2.44257848E-13, -3.38440904E+04,
                       1.03719885E+00]),
                NASA([1000.00, 6000.00],
                     [ 2.92408264E+00,  8.52279140E-04, -1.60115398E-07,
                       1.31455482E-11, -2.46281644E-16, -3.36186854E+04,
                       4.19417238E+00])),
        transport=gas_transport(geom='linear',
                                diam=3.148,
                                well_depth=330.001,
                                dipole=1.92,
                                polar=2.46,
                                rot_relax=1.0))

species(name='CH2F(45)',
        atoms='C:1 F:1 H:2',
        thermo=(NASA([200.00, 1000.00],
                     [ 3.77938639E+00, -3.97612680E-04,  1.87718416E-05,
                      -2.40689064E-08,  9.55051041E-12, -4.99331979E+03,
                       6.23834236E+00]),
                NASA([1000.00, 3000.00],
                     [ 3.20982001E+00,  6.97057987E-03, -3.20030736E-06,
                       7.19313063E-10, -6.41861685E-14, -5.05791555E+03,
                       7.93158384E+00])),
        transport=gas_transport(geom='nonlinear',
                                diam=4.123,
                                well_depth=262.0,
                                dipole=1.8))

species(name='CHFO(46)',
        atoms='C:1 F:1 H:1 O:1',
        thermo=(NASA([200.00, 1000.00],
                     [ 3.75304076E+00, -1.54852861E-03,  2.57217119E-05,
                      -3.26531112E-08,  1.28244723E-11, -4.72465247E+04,
                       7.84452039E+00]),
                NASA([1000.00, 3000.00],
                     [ 3.35899933E+00,  7.98029314E-03, -4.19403281E-06,
                       1.05585946E-09, -1.03534032E-13, -4.74866206E+04,
                       7.99119076E+00])),
        transport=gas_transport(geom='nonlinear',
                                diam=4.906,
                                well_depth=350.5))

species(name='CFO(50)',
        atoms='C:1 F:1 O:1',
        thermo=(NASA([200.00, 1000.00],
                     [ 3.44442764E+00,  3.58299017E-03,  3.31756350E-06,
                      -7.17713557E-09,  3.14601149E-12, -2.25576575E+04,
                       9.13877709E+00]),
                NASA([1000.00, 3000.00],
                     [ 4.06597351E+00,  3.97110832E-03, -2.26619886E-06,
                       6.04870210E-10, -6.18959515E-14, -2.28159283E+04,
                       5.45702826E+00])),
        transport=gas_transport(geom='nonlinear',
                                diam=4.0,
                                well_depth=860.0))

species(name='CFOOH(127)',
        atoms='C:1 F:1 H:1 O:2',
        thermo=(NASA([200.00, 1000.00],
                     [ 6.97782922E-01,  2.85739134E-02, -3.24394422E-05,
                       1.82243860E-08, -3.96445547E-12, -7.49512994E+04,
                       2.10926135E+01]),
                NASA([1000.00, 3000.00],
                     [ 6.02781603E+00,  9.00158456E-03, -5.18114686E-06,
                       1.38567672E-09, -1.41745778E-13, -7.61361312E+04,
                      -5.12554403E+00])),
        transport=gas_transport(geom='nonlinear',
                                diam=5.092,
                                well_depth=433.932))

species(name='C1OO1(148)',
        atoms='C:1 H:2 O:2',
        thermo=(NASA([100.00, 885.25],
                     [ 3.54054476E+00, -1.77450843E-02,  1.31421860E-04,
                      -1.83788748E-07,  7.77312862E-11, -1.97383078E+03,
                       7.10142150E+00]),
                NASA([885.25, 5000.00],
                     [ 2.11786764E+01, -2.37530394E-02,  1.67395211E-05,
                      -3.39198516E-09,  2.31175422E-13, -7.98409105E+03,
                      -9.21510645E+01])),
        transport=gas_transport(geom='nonlinear',
                                diam=4.537,
                                well_depth=362.248))

species(name='O2(149)',
        atoms='O:2',
        thermo=(NASA([100.00, 1074.55],
                     [ 3.53732243E+00, -1.21571647E-03,  5.31620254E-06,
                      -4.89446434E-09,  1.45846258E-12,  1.03044825E+04,
                       4.68368183E+00]),
                NASA([1074.55, 5000.00],
                     [ 3.15382081E+00,  1.67804371E-03, -7.69974236E-07,
                       1.51275462E-10, -1.08782414E-14,  1.03022537E+04,
                       6.16755832E+00])),
        transport=gas_transport(geom='linear',
                                diam=3.461,
                                well_depth=223.367))

species(name='[O]C[O](151)',
        atoms='C:1 H:2 O:2',
        thermo=(NASA([100.00, 1894.83],
                     [ 5.67715187E+00, -7.71642843E-03,  2.71171815E-05,
                      -1.79271919E-08,  3.39821302E-12,  6.33773578E+03,
                       9.67265437E-01]),
                NASA([1894.83, 5000.00],
                     [ 6.51982303E+00,  1.50029807E-02, -1.02615998E-05,
                       2.04722454E-09, -1.37416037E-13,  1.62046769E+03,
                      -1.52417559E+01])),
        transport=gas_transport(geom='nonlinear',
                                diam=4.721,
                                well_depth=436.691))

species(name='CHO2(154)',
        atoms='C:1 H:1 O:2',
        thermo=(NASA([100.00, 1184.07],
                     [ 3.51544795E+00,  1.12656127E-02, -9.58083849E-06,
                       4.36318785E-09, -8.44584136E-13, -1.66722453E+04,
                       7.37034529E+00]),
                NASA([1184.07, 5000.00],
                     [ 5.09940713E+00,  5.91472052E-03, -2.80224360E-06,
                       5.46640603E-10, -3.87737278E-14, -1.70473493E+04,
                      -5.38965669E-01])),
        transport=gas_transport(geom='nonlinear',
                                diam=3.59,
                                well_depth=498.0,
                                rot_relax=2.0))

species(name='CHO2(157)',
        atoms='C:1 H:1 O:2',
        thermo=(NASA([200.00, 1000.00],
                     [ 2.92208000E+00,  7.62454000E-03,  3.29884000E-06,
                      -1.07135000E-08,  5.11587000E-12, -2.30282000E+04,
                       1.12926000E+01]),
                NASA([1000.00, 6000.00],
                     [ 5.39206000E+00,  4.11221000E-03, -1.48195000E-06,
                       2.39875000E-10, -1.43903000E-14, -2.38607000E+04,
                      -2.23529000E+00])),
        transport=gas_transport(geom='nonlinear',
                                diam=3.59,
                                well_depth=498.0,
                                rot_relax=2.0))

species(name='[O]OCF(198)',
        atoms='C:1 F:1 H:2 O:2',
        thermo=(NASA([10.00, 997.57],
                     [ 3.91825000E+00,  1.04144000E-02,  6.14512000E-06,
                      -1.30410000E-08,  5.04468000E-12, -2.40487000E+04,
                       9.83513000E+00]),
                NASA([997.57, 3000.00],
                     [ 4.63802000E+00,  1.34503000E-02, -7.32448000E-06,
                       1.91158000E-09, -1.93959000E-13, -2.44870000E+04,
                       4.88755000E+00])),
        transport=gas_transport(geom='nonlinear',
                                diam=4.927,
                                well_depth=384.601))

species(name='CO3(202)',
        atoms='C:1 O:3',
        thermo=(NASA([100.00, 995.96],
                     [ 3.36987994E+00,  1.05618088E-02, -1.27532577E-06,
                      -7.37782475E-09,  3.82304228E-12, -7.23620909E+03,
                       1.02409508E+01]),
                NASA([995.96, 5000.00],
                     [ 7.17799254E+00,  2.88728270E-03, -1.19273993E-06,
                       2.48506248E-10, -1.94615935E-14, -8.37266924E+03,
                      -1.00128103E+01])),
        transport=gas_transport(geom='nonlinear',
                                diam=5.019,
                                well_depth=432.363))

species(name='CHO3(238)',
        atoms='C:1 H:1 O:3',
        thermo=(NASA([10.00, 620.94],
                     [ 3.97086000E+00,  1.59581000E-03,  4.23066000E-05,
                      -7.29624000E-08,  3.78807000E-11, -4.60864000E+04,
                       8.41125000E+00]),
                NASA([620.94, 3000.00],
                     [ 2.60714000E+00,  1.73834000E-02, -1.27477000E-05,
                       4.30843000E-09, -5.42128000E-13, -4.60521000E+04,
                       1.32535000E+01])),
        transport=gas_transport(geom='nonlinear',
                                diam=5.019,
                                well_depth=432.363))

species(name='CFO3(398)',
        atoms='C:1 F:1 O:3',
        thermo=(NASA([10.00, 509.96],
                     [ 3.92964000E+00,  4.48623000E-03,  6.20575000E-05,
                      -1.45434000E-07,  9.86982000E-11, -4.08678000E+04,
                       1.02015000E+01]),
                NASA([509.96, 3000.00],
                     [ 4.25304000E+00,  1.57357000E-02, -1.15832000E-05,
                       3.84885000E-09, -4.74388000E-13, -4.10800000E+04,
                       7.10146000E+00])),
        transport=gas_transport(geom='nonlinear',
                                diam=5.013,
                                well_depth=419.393))

species(name='[O]C1(F)OO1(655)',
        atoms='C:1 F:1 O:3',
        thermo=(NASA([100.00, 2076.09],
                     [ 4.89021438E+00,  5.06233862E-03,  7.72084227E-06,
                      -7.20031265E-09,  1.41470701E-12, -3.04240939E+04,
                       6.56282039E+00]),
                NASA([2076.09, 5000.00],
                     [ 1.28330892E+01,  6.96662192E-03, -6.08787201E-06,
                       1.22628340E-09, -8.07707457E-14, -3.74305314E+04,
                      -4.64903626E+01])),
        transport=gas_transport(geom='nonlinear',
                                diam=4.486,
                                well_depth=431.479))

species(name='CO3(658)',
        atoms='C:1 O:3',
        thermo=(NASA([100.00, 959.17],
                     [ 3.47735619E+00,  6.97961476E-03,  9.25597937E-06,
                      -1.89208189E-08,  8.13911361E-12, -2.04663310E+04,
                       8.68638342E+00]),
                NASA([959.17, 5000.00],
                     [ 7.36872444E+00,  2.00093262E-03, -5.50289882E-07,
                       1.22230145E-10, -1.12068807E-14, -2.17303086E+04,
                      -1.26225310E+01])),
        transport=gas_transport(geom='nonlinear',
                                diam=4.729,
                                well_depth=435.983))

species(name='[O][C]1OO1(659)',
        atoms='C:1 O:3',
        thermo=(NASA([100.00, 1836.06],
                     [ 4.39407389E+00,  2.96957862E-03,  1.30300597E-05,
                      -9.79258721E-09,  1.92445781E-12, -2.84690327E+04,
                       8.88001006E+00]),
                NASA([1836.06, 5000.00],
                     [ 3.53304788E+00,  1.68724906E-02, -8.15389069E-06,
                       1.46691281E-09, -9.44280797E-14, -3.01800928E+04,
                       8.03651994E+00])),
        transport=gas_transport(geom='nonlinear',
                                diam=4.634,
                                well_depth=428.111))

species(name='O[C]1OO1(661)',
        atoms='C:1 H:1 O:3',
        thermo=(NASA([100.00, 889.86],
                     [ 3.20115968E+00,  1.32912437E-02,  1.13314884E-05,
                      -2.47611926E-08,  1.11295636E-11, -5.57614353E+04,
                       1.26933926E+01]),
                NASA([889.86, 5000.00],
                     [ 6.43660408E+00,  1.02450557E-02, -2.91430684E-06,
                       4.31027344E-10, -2.71573234E-14, -5.67924683E+04,
                      -5.09598944E+00])),
        transport=gas_transport(geom='nonlinear',
                                diam=4.634,
                                well_depth=428.111))

#-------------------------------------------------------------------------------
# Reaction data
#-------------------------------------------------------------------------------

# Reaction 1
pdep_arrhenius('HF(38) + CH2(T)(17) <=> CH3F(1)',
               [(0.1, 'atm'), 1.500000e+27, -5.16, -1.405],
               [(0.215, 'atm'), 1.190000e+27, -5.03, -1.176],
               [(0.464, 'atm'), 7.150000e+26, -4.88, -0.966],
               [(1.0, 'atm'), 3.090000e+26, -4.68, -0.786],
               [(2.15, 'atm'), 8.910000e+25, -4.43, -0.664],
               [(4.64, 'atm'), 1.600000e+25, -4.13, -0.621],
               [(10.0, 'atm'), 1.700000e+24, -3.77, -0.681],
               [(21.5, 'atm'), 1.060000e+23, -3.34, -0.86],
               [(46.4, 'atm'), 4.030000e+21, -2.86, -1.159],
               [(100.0, 'atm'), 9.970000e+19, -2.33, -1.577])

# Reaction 2
chebyshev_reaction('O2(2) + CH2(T)(17) (+ M) <=> C1OO1(148) (+ M)',
                   Tmin=300.0, Tmax=2500.0,
                   Pmin=(0.01, 'atm'), Pmax=(98.692, 'atm'),
                   coeffs=[[ 7.30100e+00,  2.00000e+00, -1.14400e-04, -6.35200e-05],
                           [-4.02100e-01,  1.35100e-04,  9.40400e-05,  5.22000e-05],
                           [ 1.02700e-01, -4.41700e-06, -3.07100e-06, -1.70200e-06],
                           [ 1.09700e-01,  1.50000e-06,  1.04400e-06,  5.79400e-07],
                           [ 6.25200e-02,  5.09100e-08,  3.54900e-08,  1.97500e-08],
                           [ 3.08900e-02, -2.81800e-07, -1.96200e-07, -1.08900e-07]])

# Reaction 3
chebyshev_reaction('O2(2) + CH2(T)(17) (+ M) <=> [O]C[O](151) (+ M)',
                   Tmin=300.0, Tmax=2500.0,
                   Pmin=(0.01, 'atm'), Pmax=(98.692, 'atm'),
                   coeffs=[[ 8.53700e+00,  2.00000e+00, -1.17400e-04, -6.51900e-05],
                           [-3.09700e-01,  1.38400e-04,  9.63300e-05,  5.34700e-05],
                           [-9.75200e-02, -4.36200e-06, -3.03300e-06, -1.68100e-06],
                           [-4.36100e-02,  1.54000e-06,  1.07200e-06,  5.94700e-07],
                           [-1.97100e-02,  5.50000e-08,  3.83300e-08,  2.13300e-08],
                           [-8.61800e-03, -2.83700e-07, -1.97500e-07, -1.09600e-07]])

# Reaction 4
chebyshev_reaction('[O]C[O](151) (+ M) <=> C1OO1(148) (+ M)',
                   Tmin=300.0, Tmax=2500.0,
                   Pmin=(0.01, 'atm'), Pmax=(98.692, 'atm'),
                   coeffs=[[ 9.27000e+00,  2.06100e+00,  3.39400e-02,  1.15700e-02],
                           [-1.12600e+00,  1.02900e-01,  5.72100e-02,  1.96400e-02],
                           [-5.17100e-01,  6.74300e-02,  3.68500e-02,  1.20600e-02],
                           [-2.28400e-01,  4.10300e-02,  2.11400e-02,  5.66600e-03],
                           [-9.13900e-02,  2.58900e-02,  1.23800e-02,  2.30400e-03],
                           [-3.54100e-02,  1.63800e-02,  7.42600e-03,  9.17800e-04]])

# Reaction 5
chebyshev_reaction('O2(2) + CH2(T)(17) (+ M) <=> H(3) + CHO2(154) (+ M)',
                   Tmin=300.0, Tmax=2500.0,
                   Pmin=(0.01, 'atm'), Pmax=(98.692, 'atm'),
                   coeffs=[[ 1.36700e+01, -1.67100e-04, -1.16300e-04, -6.45700e-05],
                           [ 1.67500e-01,  1.39700e-04,  9.72300e-05,  5.39700e-05],
                           [ 4.06300e-02, -3.90900e-06, -2.71800e-06, -1.50600e-06],
                           [ 1.28500e-02,  1.64500e-06,  1.14500e-06,  6.35400e-07],
                           [ 4.83000e-03,  6.03800e-08,  4.20800e-08,  2.34100e-08],
                           [ 2.04900e-03, -2.93400e-07, -2.04200e-07, -1.13400e-07]])

# Reaction 6
chebyshev_reaction('[O]C[O](151) (+ M) <=> H(3) + CHO2(154) (+ M)',
                   Tmin=300.0, Tmax=2500.0,
                   Pmin=(0.01, 'atm'), Pmax=(98.692, 'atm'),